<?xml version="1.0" encoding="UTF-8"?>

<!-- generated on 2026-01-24T21:25:59.238242-08:00 by Eclipse SUMO netedit 1.25.0
<neteditConfiguration xmlns:xsi="http://www.w3.org/2001/XMLSchema-instance" xsi:noNamespaceSchemaLocation="http://sumo.dlr.de/xsd/neteditConfiguration.xsd">

    <input>
        <sumo-net-file value="C:\Arnav\Repositories\sumo-traffic-optimization-quantum\grid2x2_tls.net.xml"/>
    </input>

    <output>
        <output-file value="C:\Arnav\Repositories\sumo-traffic-optimization-quantum\grid2x2_tls.net.xml"/>
    </output>

    <processing>
        <geometry.min-radius.fix.railways value="false"/>
        <geometry.avoid-overlap value="false"/>
        <geometry.max-grade.fix value="false"/>
        <offset.disable-normalization value="true"/>
        <lefthand value="0"/>
    </processing>

    <junctions>
        <no-turnarounds value="true"/>
        <junctions.corner-detail value="0"/>
        <junctions.limit-turn-speed value="5.50"/>
        <rectangular-lane-cut value="0"/>
    </junctions>

    <pedestrian>
        <walkingareas value="0"/>
    </pedestrian>

</neteditConfiguration>
-->

<net version="1.20" limitTurnSpeed="5.50" avoidOverlap="0" xmlns:xsi="http://www.w3.org/2001/XMLSchema-instance" xsi:noNamespaceSchemaLocation="http://sumo.dlr.de/xsd/net_file.xsd">

    <location netOffset="0.00,0.00" convBoundary="-36.15,-33.09,137.95,133.84" origBoundary="0.00,0.00,100.00,100.00" projParameter="!"/>

    <edge id=":A0_0" function="internal">
        <lane id=":A0_0_0" index="0" speed="6.49" length="9.03" shape="-1.60,7.22 -1.95,4.77 -3.00,3.02 -4.76,1.98 -7.21,1.64"/>
    </edge>
    <edge id=":A0_1" function="internal">
        <lane id=":A0_1_0" index="0" speed="13.89" length="14.42" shape="-1.60,7.22 -1.67,-7.20"/>
    </edge>
    <edge id=":A0_2" function="internal">
        <lane id=":A0_2_0" index="0" speed="8.01" length="4.04" shape="-1.60,7.22 -1.05,3.36 -0.98,3.24"/>
    </edge>
    <edge id=":A0_12" function="internal">
        <lane id=":A0_12_0" index="0" speed="8.01" length="10.17" shape="-0.98,3.24 0.60,0.60 3.35,-1.05 7.20,-1.60"/>
    </edge>
    <edge id=":A0_3" function="internal">
        <lane id=":A0_3_0" index="0" speed="6.51" length="9.05" shape="7.20,1.60 4.75,1.95 3.00,3.00 1.95,4.76 1.60,7.22"/>
    </edge>
    <edge id=":A0_4" function="internal">
        <lane id=":A0_4_0" index="0" speed="13.89" length="14.41" shape="7.20,1.60 -7.21,1.64"/>
    </edge>
    <edge id=":A0_5" function="internal">
        <lane id=":A0_5_0" index="0" speed="8.04" length="4.05" shape="7.20,1.60 3.35,1.05 3.22,0.97"/>
    </edge>
    <edge id=":A0_13" function="internal">
        <lane id=":A0_13_0" index="0" speed="8.04" length="10.17" shape="3.22,0.97 0.59,-0.60 -1.08,-3.35 -1.67,-7.20"/>
    </edge>
    <edge id=":A0_6" function="internal">
        <lane id=":A0_6_0" index="0" speed="6.55" length="9.09" shape="1.53,-7.23 1.90,-4.77 2.97,-3.01 4.74,-1.95 7.20,-1.60"/>
    </edge>
    <edge id=":A0_7" function="internal">
        <lane id=":A0_7_0" index="0" speed="13.89" length="14.45" shape="1.53,-7.23 1.60,7.22"/>
    </edge>
    <edge id=":A0_8" function="internal">
        <lane id=":A0_8_0" index="0" speed="8.00" length="4.11" shape="1.53,-7.23 1.01,-3.37 0.91,-3.19"/>
    </edge>
    <edge id=":A0_14" function="internal">
        <lane id=":A0_14_0" index="0" speed="8.00" length="10.11" shape="0.91,-3.19 -0.61,-0.60 -3.35,1.07 -7.21,1.64"/>
    </edge>
    <edge id=":A0_9" function="internal">
        <lane id=":A0_9_0" index="0" speed="6.50" length="9.04" shape="-7.23,-1.56 -4.78,-1.92 -3.03,-2.98 -2.00,-4.74 -1.67,-7.20"/>
    </edge>
    <edge id=":A0_10" function="internal">
        <lane id=":A0_10_0" index="0" speed="13.89" length="14.43" shape="-7.23,-1.56 7.20,-1.60"/>
    </edge>
    <edge id=":A0_11" function="internal">
        <lane id=":A0_11_0" index="0" speed="7.99" length="4.09" shape="-7.23,-1.56 -3.37,-1.03 -3.20,-0.93"/>
    </edge>
    <edge id=":A0_15" function="internal">
        <lane id=":A0_15_0" index="0" speed="7.99" length="10.12" shape="-3.20,-0.93 -0.61,0.61 1.05,3.36 1.60,7.22"/>
    </edge>
    <edge id=":A1_0" function="internal">
        <lane id=":A1_0_0" index="0" speed="6.52" length="9.05" shape="-1.57,107.22 -1.93,104.76 -2.99,103.01 -4.74,101.96 -7.19,101.61"/>
    </edge>
    <edge id=":A1_1" function="internal">
        <lane id=":A1_1_0" index="0" speed="13.89" length="14.42" shape="-1.57,107.22 -1.60,92.80"/>
    </edge>
    <edge id=":A1_2" function="internal">
        <lane id=":A1_2_0" index="0" speed="8.00" length="4.08" shape="-1.57,107.22 -1.04,103.36 -0.94,103.20"/>
    </edge>
    <edge id=":A1_12" function="internal">
        <lane id=":A1_12_0" index="0" speed="8.00" length="10.12" shape="-0.94,103.20 0.61,100.60 3.36,98.95 7.21,98.40"/>
    </edge>
    <edge id=":A1_3" function="internal">
        <lane id=":A1_3_0" index="0" speed="6.50" length="9.03" shape="7.21,101.60 4.76,101.95 3.01,103.00 1.97,104.75 1.63,107.21"/>
    </edge>
    <edge id=":A1_4" function="internal">
        <lane id=":A1_4_0" index="0" speed="13.89" length="14.40" shape="7.21,101.60 -7.19,101.61"/>
    </edge>
    <edge id=":A1_5" function="internal">
        <lane id=":A1_5_0" index="0" speed="8.00" length="4.07" shape="7.21,101.60 3.36,101.05 3.21,100.96"/>
    </edge>
    <edge id=":A1_13" function="internal">
        <lane id=":A1_13_0" index="0" speed="8.00" length="10.14" shape="3.21,100.96 0.60,99.40 -1.05,96.65 -1.60,92.80"/>
    </edge>
    <edge id=":A1_6" function="internal">
        <lane id=":A1_6_0" index="0" speed="6.51" length="9.04" shape="1.60,92.80 1.95,95.25 3.00,97.00 4.76,98.05 7.21,98.40"/>
    </edge>
    <edge id=":A1_7" function="internal">
        <lane id=":A1_7_0" index="0" speed="13.89" length="14.41" shape="1.60,92.80 1.63,107.21"/>
    </edge>
    <edge id=":A1_8" function="internal">
        <lane id=":A1_8_0" index="0" speed="8.01" length="4.05" shape="1.60,92.80 1.05,96.65 0.97,96.79"/>
    </edge>
    <edge id=":A1_14" function="internal">
        <lane id=":A1_14_0" index="0" speed="8.01" length="10.14" shape="0.97,96.79 -0.60,99.40 -3.35,101.06 -7.19,101.61"/>
    </edge>
    <edge id=":A1_9" function="internal">
        <lane id=":A1_9_0" index="0" speed="6.51" length="9.04" shape="-7.20,98.41 -4.75,98.06 -3.00,97.00 -1.95,95.25 -1.60,92.80"/>
    </edge>
    <edge id=":A1_10" function="internal">
        <lane id=":A1_10_0" index="0" speed="13.89" length="14.41" shape="-7.20,98.41 7.21,98.40"/>
    </edge>
    <edge id=":A1_11" function="internal">
        <lane id=":A1_11_0" index="0" speed="8.01" length="4.07" shape="-7.20,98.41 -3.35,98.96 -3.19,99.05"/>
    </edge>
    <edge id=":A1_15" function="internal">
        <lane id=":A1_15_0" index="0" speed="8.01" length="10.13" shape="-3.19,99.05 -0.60,100.60 1.06,103.35 1.63,107.21"/>
    </edge>
    <edge id=":B0_0" function="internal">
        <lane id=":B0_0_0" index="0" speed="6.53" length="9.10" shape="98.40,7.26 98.05,4.78 96.99,3.01 95.24,1.95 92.77,1.60"/>
    </edge>
    <edge id=":B0_1" function="internal">
        <lane id=":B0_1_0" index="0" speed="13.89" length="14.47" shape="98.40,7.26 98.34,-7.21"/>
    </edge>
    <edge id=":B0_2" function="internal">
        <lane id=":B0_2_0" index="0" speed="7.97" length="4.05" shape="98.40,7.26 98.96,3.38 99.02,3.26"/>
    </edge>
    <edge id=":B0_12" function="internal">
        <lane id=":B0_12_0" index="0" speed="7.97" length="10.21" shape="99.02,3.26 100.62,0.63 103.40,-0.99 107.28,-1.47"/>
    </edge>
    <edge id=":B0_3" function="internal">
        <lane id=":B0_3_0" index="0" speed="6.47" length="9.03" shape="107.23,1.73 104.77,2.04 103.01,3.06 101.95,4.80 101.60,7.26"/>
    </edge>
    <edge id=":B0_4" function="internal">
        <lane id=":B0_4_0" index="0" speed="13.89" length="14.45" shape="107.23,1.73 92.77,1.60"/>
    </edge>
    <edge id=":B0_5" function="internal">
        <lane id=":B0_5_0" index="0" speed="8.10" length="4.03" shape="107.23,1.73 103.37,1.11 103.26,1.05"/>
    </edge>
    <edge id=":B0_13" function="internal">
        <lane id=":B0_13_0" index="0" speed="8.10" length="10.26" shape="103.26,1.05 100.60,-0.59 98.92,-3.36 98.34,-7.21"/>
    </edge>
    <edge id=":B0_6" function="internal">
        <lane id=":B0_6_0" index="0" speed="6.63" length="9.23" shape="101.54,-7.24 101.92,-4.75 103.00,-2.96 104.79,-1.87 107.28,-1.47"/>
    </edge>
    <edge id=":B0_7" function="internal">
        <lane id=":B0_7_0" index="0" speed="13.89" length="14.49" shape="101.54,-7.24 101.60,7.26"/>
    </edge>
    <edge id=":B0_8" function="internal">
        <lane id=":B0_8_0" index="0" speed="7.99" length="4.10" shape="101.54,-7.24 101.02,-3.37 100.92,-3.20"/>
    </edge>
    <edge id=":B0_14" function="internal">
        <lane id=":B0_14_0" index="0" speed="7.99" length="10.12" shape="100.92,-3.20 99.39,-0.61 96.64,1.05 92.77,1.60"/>
    </edge>
    <edge id=":B0_9" function="internal">
        <lane id=":B0_9_0" index="0" speed="6.49" length="9.03" shape="92.77,-1.60 95.23,-1.95 96.97,-3.00 98.01,-4.76 98.34,-7.21"/>
    </edge>
    <edge id=":B0_10" function="internal">
        <lane id=":B0_10_0" index="0" speed="13.89" length="14.51" shape="92.77,-1.60 107.28,-1.47"/>
    </edge>
    <edge id=":B0_11" function="internal">
        <lane id=":B0_11_0" index="0" speed="8.02" length="4.14" shape="92.77,-1.60 96.64,-1.05 96.84,-0.92"/>
    </edge>
    <edge id=":B0_15" function="internal">
        <lane id=":B0_15_0" index="0" speed="8.02" length="10.12" shape="96.84,-0.92 99.39,0.61 101.05,3.38 101.60,7.26"/>
    </edge>
    <edge id=":B1_0" function="internal">
        <lane id=":B1_0_0" index="0" speed="6.52" length="9.05" shape="107.19,101.61 104.74,101.96 102.99,103.01 101.93,104.76 101.57,107.22"/>
    </edge>
    <edge id=":B1_1" function="internal">
        <lane id=":B1_1_0" index="0" speed="13.89" length="14.41" shape="107.19,101.61 92.79,101.60"/>
    </edge>
    <edge id=":B1_2" function="internal">
        <lane id=":B1_2_0" index="0" speed="8.01" length="4.06" shape="107.19,101.61 103.35,101.05 103.20,100.97"/>
    </edge>
    <edge id=":B1_12" function="internal">
        <lane id=":B1_12_0" index="0" speed="8.01" length="10.13" shape="103.20,100.97 100.60,99.40 98.95,96.65 98.40,92.80"/>
    </edge>
    <edge id=":B1_3" function="internal">
        <lane id=":B1_3_0" index="0" speed="6.51" length="9.03" shape="101.60,92.80 101.95,95.25 103.00,97.00 104.75,98.06 107.20,98.41"/>
    </edge>
    <edge id=":B1_4" function="internal">
        <lane id=":B1_4_0" index="0" speed="13.89" length="14.42" shape="101.60,92.80 101.57,107.22"/>
    </edge>
    <edge id=":B1_5" function="internal">
        <lane id=":B1_5_0" index="0" speed="8.00" length="4.08" shape="101.60,92.80 101.05,96.65 100.95,96.81"/>
    </edge>
    <edge id=":B1_13" function="internal">
        <lane id=":B1_13_0" index="0" speed="8.00" length="10.12" shape="100.95,96.81 99.40,99.40 96.64,101.05 92.79,101.60"/>
    </edge>
    <edge id=":B1_6" function="internal">
        <lane id=":B1_6_0" index="0" speed="6.51" length="9.04" shape="92.79,98.40 95.24,98.05 97.00,97.00 98.05,95.25 98.40,92.80"/>
    </edge>
    <edge id=":B1_7" function="internal">
        <lane id=":B1_7_0" index="0" speed="13.89" length="14.41" shape="92.79,98.40 107.20,98.41"/>
    </edge>
    <edge id=":B1_8" function="internal">
        <lane id=":B1_8_0" index="0" speed="7.99" length="4.07" shape="92.79,98.40 96.64,98.95 96.80,99.04"/>
    </edge>
    <edge id=":B1_14" function="internal">
        <lane id=":B1_14_0" index="0" speed="7.99" length="10.13" shape="96.80,99.04 99.39,100.60 101.04,103.36 101.57,107.22"/>
    </edge>
    <edge id=":B1_9" function="internal">
        <lane id=":B1_9_0" index="0" speed="6.50" length="9.03" shape="98.37,107.21 98.03,104.75 96.99,103.00 95.24,101.95 92.79,101.60"/>
    </edge>
    <edge id=":B1_10" function="internal">
        <lane id=":B1_10_0" index="0" speed="13.89" length="14.41" shape="98.37,107.21 98.40,92.80"/>
    </edge>
    <edge id=":B1_11" function="internal">
        <lane id=":B1_11_0" index="0" speed="8.01" length="4.06" shape="98.37,107.21 98.94,103.35 99.02,103.21"/>
    </edge>
    <edge id=":B1_15" function="internal">
        <lane id=":B1_15_0" index="0" speed="8.01" length="10.14" shape="99.02,103.21 100.60,100.60 103.35,98.95 107.20,98.41"/>
    </edge>

    <edge id="-E0" from="J0" to="B1" priority="-1">
        <lane id="-E0_0" index="0" speed="13.89" length="26.63" shape="98.27,133.83 98.37,107.21"/>
    </edge>
    <edge id="-E1" from="J1" to="B1" priority="-1">
        <lane id="-E1_0" index="0" speed="13.89" length="30.75" shape="137.95,101.65 107.19,101.61"/>
    </edge>
    <edge id="-E2" from="J2" to="B0" priority="-1">
        <lane id="-E2_0" index="0" speed="13.89" length="25.20" shape="101.34,-32.43 101.54,-7.24"/>
    </edge>
    <edge id="-E3" from="J3" to="A0" priority="-1">
        <lane id="-E3_0" index="0" speed="13.89" length="25.88" shape="1.27,-33.11 1.53,-7.23"/>
    </edge>
    <edge id="-E4" from="J4" to="B0" priority="-1">
        <lane id="-E4_0" index="0" speed="13.89" length="23.62" shape="130.84,2.14 107.23,1.73"/>
    </edge>
    <edge id="-E5" from="J5" to="A0" priority="-1">
        <lane id="-E5_0" index="0" speed="13.89" length="27.09" shape="-34.32,-1.40 -7.23,-1.56"/>
    </edge>
    <edge id="-E6" from="J6" to="A1" priority="-1">
        <lane id="-E6_0" index="0" speed="13.89" length="24.76" shape="-1.48,131.98 -1.57,107.22"/>
    </edge>
    <edge id="-E7" from="J7" to="A1" priority="-1">
        <lane id="-E7_0" index="0" speed="13.89" length="28.96" shape="-36.15,98.46 -7.20,98.41"/>
    </edge>
    <edge id="A0A1" from="A0" to="A1" priority="-1">
        <lane id="A0A1_0" index="0" speed="13.89" length="85.58" shape="1.60,7.22 1.60,92.80"/>
    </edge>
    <edge id="A0B0" from="A0" to="B0" priority="-1">
        <lane id="A0B0_0" index="0" speed="13.89" length="85.57" shape="7.20,-1.60 92.77,-1.60"/>
    </edge>
    <edge id="A1A0" from="A1" to="A0" priority="-1">
        <lane id="A1A0_0" index="0" speed="13.89" length="85.58" shape="-1.60,92.80 -1.60,7.22"/>
    </edge>
    <edge id="A1B1" from="A1" to="B1" priority="-1">
        <lane id="A1B1_0" index="0" speed="13.89" length="85.58" shape="7.21,98.40 92.79,98.40"/>
    </edge>
    <edge id="B0A0" from="B0" to="A0" priority="-1">
        <lane id="B0A0_0" index="0" speed="13.89" length="85.57" shape="92.77,1.60 7.20,1.60"/>
    </edge>
    <edge id="B0B1" from="B0" to="B1" priority="-1">
        <lane id="B0B1_0" index="0" speed="13.89" length="85.54" shape="101.60,7.26 101.60,92.80"/>
    </edge>
    <edge id="B1A1" from="B1" to="A1" priority="-1">
        <lane id="B1A1_0" index="0" speed="13.89" length="85.58" shape="92.79,101.60 7.21,101.60"/>
    </edge>
    <edge id="B1B0" from="B1" to="B0" priority="-1">
        <lane id="B1B0_0" index="0" speed="13.89" length="85.54" shape="98.40,92.80 98.40,7.26"/>
    </edge>
    <edge id="E0" from="B1" to="J0" priority="-1">
        <lane id="E0_0" index="0" speed="13.89" length="26.63" shape="101.57,107.22 101.47,133.85"/>
    </edge>
    <edge id="E1" from="B1" to="J1" priority="-1">
        <lane id="E1_0" index="0" speed="13.89" length="30.75" shape="107.20,98.41 137.95,98.45"/>
    </edge>
    <edge id="E2" from="B0" to="J2" priority="-1">
        <lane id="E2_0" index="0" speed="13.89" length="25.20" shape="98.34,-7.21 98.14,-32.41"/>
    </edge>
    <edge id="E3" from="A0" to="J3" priority="-1">
        <lane id="E3_0" index="0" speed="13.89" length="25.88" shape="-1.67,-7.20 -1.93,-33.07"/>
    </edge>
    <edge id="E4" from="B0" to="J4" priority="-1">
        <lane id="E4_0" index="0" speed="13.89" length="23.62" shape="107.28,-1.47 130.90,-1.06"/>
    </edge>
    <edge id="E5" from="A0" to="J5" priority="-1">
        <lane id="E5_0" index="0" speed="13.89" length="27.09" shape="-7.21,1.64 -34.30,1.80"/>
    </edge>
    <edge id="E6" from="A1" to="J6" priority="-1">
        <lane id="E6_0" index="0" speed="13.89" length="24.76" shape="1.63,107.21 1.72,131.96"/>
    </edge>
    <edge id="E7" from="A1" to="J7" priority="-1">
        <lane id="E7_0" index="0" speed="13.89" length="28.96" shape="-7.19,101.61 -36.15,101.66"/>
    </edge>

    <tlLogic id="A0" type="static" programID="0" offset="0">
        <phase duration="42" state="rrrGGgrrrGGg"/>
        <phase duration="3"  state="rrryyyrrryyy"/>
        <phase duration="42" state="GGgrrrGGgrrr"/>
        <phase duration="3"  state="yyyrrryyyrrr"/>
    </tlLogic>
    <tlLogic id="A1" type="static" programID="0" offset="0">
        <phase duration="42" state="rrrGGgrrrGGg"/>
        <phase duration="3"  state="rrryyyrrryyy"/>
        <phase duration="42" state="GGgrrrGGgrrr"/>
        <phase duration="3"  state="yyyrrryyyrrr"/>
    </tlLogic>
    <tlLogic id="B0" type="static" programID="0" offset="0">
        <phase duration="42" state="GGgrrrGGgrrr"/>
        <phase duration="3"  state="yyyrrryyyrrr"/>
        <phase duration="42" state="rrrGGgrrrGGg"/>
        <phase duration="3"  state="rrryyyrrryyy"/>
    </tlLogic>
    <tlLogic id="B1" type="static" programID="0" offset="0">
        <phase duration="42" state="GGgrrrGGgrrr"/>
        <phase duration="3"  state="yyyrrryyyrrr"/>
        <phase duration="42" state="rrrGGgrrrGGg"/>
        <phase duration="3"  state="rrryyyrrryyy"/>
    </tlLogic>

    <junction id="A0" type="traffic_light" x="0.00" y="0.00" incLanes="A1A0_0 B0A0_0 -E3_0 -E5_0" intLanes=":A0_0_0 :A0_1_0 :A0_12_0 :A0_3_0 :A0_4_0 :A0_13_0 :A0_6_0 :A0_7_0 :A0_14_0 :A0_9_0 :A0_10_0 :A0_15_0" shape="-3.20,7.22 3.20,7.22 7.20,3.20 7.20,-3.20 3.13,-7.24 -3.27,-7.18 -7.24,-3.16 -7.20,3.24">
        <request index="0"  response="000000010000" foes="000100010000" cont="0"/>
        <request index="1"  response="111000110000" foes="111100110000" cont="0"/>
        <request index="2"  response="110011110000" foes="110111110000" cont="1"/>
        <request index="3"  response="000000000000" foes="100010000000" cont="0"/>
        <request index="4"  response="000100000100" foes="100110000111" cont="0"/>
        <request index="5"  response="011100000100" foes="111110000110" cont="1"/>
        <request index="6"  response="010000000000" foes="010000000100" cont="0"/>
        <request index="7"  response="110000111000" foes="110000111100" cont="0"/>
        <request index="8"  response="110000110111" foes="110000110111" cont="1"/>
        <request index="9"  response="000000000000" foes="000000100010" cont="0"/>
        <request index="10" response="000100000100" foes="000111100110" cont="0"/>
        <request index="11" response="000100111100" foes="000110111110" cont="1"/>
    </junction>
    <junction id="A1" type="traffic_light" x="0.00" y="100.00" incLanes="-E6_0 B1A1_0 A0A1_0 -E7_0" intLanes=":A1_0_0 :A1_1_0 :A1_12_0 :A1_3_0 :A1_4_0 :A1_13_0 :A1_6_0 :A1_7_0 :A1_14_0 :A1_9_0 :A1_10_0 :A1_15_0" shape="-3.17,107.22 3.23,107.20 7.21,103.20 7.21,96.80 3.20,92.80 -3.20,92.80 -7.20,96.81 -7.19,103.21">
        <request index="0"  response="000000010000" foes="000100010000" cont="0"/>
        <request index="1"  response="111000110000" foes="111100110000" cont="0"/>
        <request index="2"  response="110111110000" foes="110111110000" cont="1"/>
        <request index="3"  response="000000000000" foes="100010000000" cont="0"/>
        <request index="4"  response="000100000100" foes="100110000111" cont="0"/>
        <request index="5"  response="011100000100" foes="111110000110" cont="1"/>
        <request index="6"  response="010000000000" foes="010000000100" cont="0"/>
        <request index="7"  response="110000111000" foes="110000111100" cont="0"/>
        <request index="8"  response="110000110011" foes="110000110111" cont="1"/>
        <request index="9"  response="000000000000" foes="000000100010" cont="0"/>
        <request index="10" response="000100000100" foes="000111100110" cont="0"/>
        <request index="11" response="000100111100" foes="000110111110" cont="1"/>
    </junction>
    <junction id="B0" type="traffic_light" x="100.00" y="0.00" incLanes="B1B0_0 -E4_0 -E2_0 A0B0_0" intLanes=":B0_0_0 :B0_1_0 :B0_12_0 :B0_3_0 :B0_4_0 :B0_13_0 :B0_6_0 :B0_7_0 :B0_14_0 :B0_9_0 :B0_10_0 :B0_15_0" shape="96.80,7.26 103.20,7.26 107.20,3.33 107.31,-3.07 103.14,-7.25 96.74,-7.20 92.77,-3.20 92.77,3.20">
        <request index="0"  response="000000000000" foes="000100010000" cont="0"/>
        <request index="1"  response="100000100000" foes="111100110000" cont="0"/>
        <request index="2"  response="100011100000" foes="110111110000" cont="1"/>
        <request index="3"  response="000010000000" foes="100010000000" cont="0"/>
        <request index="4"  response="000110000111" foes="100110000111" cont="0"/>
        <request index="5"  response="111110000110" foes="111110000110" cont="1"/>
        <request index="6"  response="000000000000" foes="010000000100" cont="0"/>
        <request index="7"  response="100000100000" foes="110000111100" cont="0"/>
        <request index="8"  response="100000100111" foes="110000110111" cont="1"/>
        <request index="9"  response="000000000010" foes="000000100010" cont="0"/>
        <request index="10" response="000111000110" foes="000111100110" cont="0"/>
        <request index="11" response="000110011110" foes="000110111110" cont="1"/>
    </junction>
    <junction id="B1" type="traffic_light" x="100.00" y="100.00" incLanes="-E1_0 B0B1_0 A1B1_0 -E0_0" intLanes=":B1_0_0 :B1_1_0 :B1_12_0 :B1_3_0 :B1_4_0 :B1_13_0 :B1_6_0 :B1_7_0 :B1_14_0 :B1_9_0 :B1_10_0 :B1_15_0" shape="107.19,103.21 107.20,96.81 103.20,92.80 96.80,92.80 92.79,96.80 92.79,103.20 96.77,107.20 103.17,107.22">
        <request index="0"  response="000000000000" foes="000100010000" cont="0"/>
        <request index="1"  response="100000100000" foes="111100110000" cont="0"/>
        <request index="2"  response="100111100000" foes="110111110000" cont="1"/>
        <request index="3"  response="000010000000" foes="100010000000" cont="0"/>
        <request index="4"  response="000110000111" foes="100110000111" cont="0"/>
        <request index="5"  response="011110000110" foes="111110000110" cont="1"/>
        <request index="6"  response="000000000000" foes="010000000100" cont="0"/>
        <request index="7"  response="100000100000" foes="110000111100" cont="0"/>
        <request index="8"  response="100000100011" foes="110000110111" cont="1"/>
        <request index="9"  response="000000000010" foes="000000100010" cont="0"/>
        <request index="10" response="000111000110" foes="000111100110" cont="0"/>
        <request index="11" response="000110111110" foes="000110111110" cont="1"/>
    </junction>
    <junction id="J0" type="dead_end" x="99.87" y="133.84" incLanes="E0_0" intLanes="" shape="99.87,133.84 103.07,133.85 99.87,133.84"/>
    <junction id="J1" type="dead_end" x="137.95" y="100.05" incLanes="E1_0" intLanes="" shape="137.95,100.05 137.95,96.85 137.95,100.05"/>
    <junction id="J2" type="dead_end" x="99.74" y="-32.42" incLanes="E2_0" intLanes="" shape="99.74,-32.42 96.54,-32.39 99.74,-32.42"/>
    <junction id="J3" type="dead_end" x="-0.33" y="-33.09" incLanes="E3_0" intLanes="" shape="-0.33,-33.09 -3.53,-33.06 -0.33,-33.09"/>
    <junction id="J4" type="dead_end" x="130.87" y="0.54" incLanes="E4_0" intLanes="" shape="130.87,0.54 130.93,-2.66 130.87,0.54"/>
    <junction id="J5" type="dead_end" x="-34.31" y="0.20" incLanes="E5_0" intLanes="" shape="-34.31,0.20 -34.29,3.40 -34.31,0.20"/>
    <junction id="J6" type="dead_end" x="0.12" y="131.97" incLanes="E6_0" intLanes="" shape="0.12,131.97 3.32,131.96 0.12,131.97"/>
    <junction id="J7" type="dead_end" x="-36.15" y="100.06" incLanes="E7_0" intLanes="" shape="-36.15,100.06 -36.14,103.26 -36.15,100.06"/>

    <junction id=":A0_12_0" type="internal" x="-0.98" y="3.24" incLanes=":A0_2_0 -E3_0" intLanes=":A0_4_0 :A0_5_0 :A0_6_0 :A0_7_0 :A0_10_0 :A0_11_0"/>
    <junction id=":A0_13_0" type="internal" x="3.22" y="0.97" incLanes=":A0_5_0 -E5_0" intLanes=":A0_1_0 :A0_2_0 :A0_7_0 :A0_8_0 :A0_9_0 :A0_10_0"/>
    <junction id=":A0_14_0" type="internal" x="0.91" y="-3.19" incLanes=":A0_8_0 A1A0_0" intLanes=":A0_0_0 :A0_1_0 :A0_4_0 :A0_5_0 :A0_10_0 :A0_11_0"/>
    <junction id=":A0_15_0" type="internal" x="-3.20" y="-0.93" incLanes=":A0_11_0 B0A0_0" intLanes=":A0_1_0 :A0_2_0 :A0_3_0 :A0_4_0 :A0_7_0 :A0_8_0"/>
    <junction id=":A1_12_0" type="internal" x="-0.94" y="103.20" incLanes=":A1_2_0 A0A1_0" intLanes=":A1_4_0 :A1_5_0 :A1_6_0 :A1_7_0 :A1_10_0 :A1_11_0"/>
    <junction id=":A1_13_0" type="internal" x="3.21" y="100.96" incLanes=":A1_5_0 -E7_0" intLanes=":A1_1_0 :A1_2_0 :A1_7_0 :A1_8_0 :A1_9_0 :A1_10_0"/>
    <junction id=":A1_14_0" type="internal" x="0.97" y="96.79" incLanes=":A1_8_0 -E6_0" intLanes=":A1_0_0 :A1_1_0 :A1_4_0 :A1_5_0 :A1_10_0 :A1_11_0"/>
    <junction id=":A1_15_0" type="internal" x="-3.19" y="99.05" incLanes=":A1_11_0 B1A1_0" intLanes=":A1_1_0 :A1_2_0 :A1_3_0 :A1_4_0 :A1_7_0 :A1_8_0"/>
    <junction id=":B0_12_0" type="internal" x="99.02" y="3.26" incLanes=":B0_2_0 -E2_0" intLanes=":B0_4_0 :B0_5_0 :B0_6_0 :B0_7_0 :B0_10_0 :B0_11_0"/>
    <junction id=":B0_13_0" type="internal" x="103.26" y="1.05" incLanes=":B0_5_0 A0B0_0" intLanes=":B0_1_0 :B0_2_0 :B0_7_0 :B0_8_0 :B0_9_0 :B0_10_0"/>
    <junction id=":B0_14_0" type="internal" x="100.92" y="-3.20" incLanes=":B0_8_0 B1B0_0" intLanes=":B0_0_0 :B0_1_0 :B0_4_0 :B0_5_0 :B0_10_0 :B0_11_0"/>
    <junction id=":B0_15_0" type="internal" x="96.84" y="-0.92" incLanes=":B0_11_0 -E4_0" intLanes=":B0_1_0 :B0_2_0 :B0_3_0 :B0_4_0 :B0_7_0 :B0_8_0"/>
    <junction id=":B1_12_0" type="internal" x="103.20" y="100.97" incLanes=":B1_2_0 A1B1_0" intLanes=":B1_4_0 :B1_5_0 :B1_6_0 :B1_7_0 :B1_10_0 :B1_11_0"/>
    <junction id=":B1_13_0" type="internal" x="100.95" y="96.81" incLanes=":B1_5_0 -E0_0" intLanes=":B1_1_0 :B1_2_0 :B1_7_0 :B1_8_0 :B1_9_0 :B1_10_0"/>
    <junction id=":B1_14_0" type="internal" x="96.80" y="99.04" incLanes=":B1_8_0 -E1_0" intLanes=":B1_0_0 :B1_1_0 :B1_4_0 :B1_5_0 :B1_10_0 :B1_11_0"/>
    <junction id=":B1_15_0" type="internal" x="99.02" y="103.21" incLanes=":B1_11_0 B0B1_0" intLanes=":B1_1_0 :B1_2_0 :B1_3_0 :B1_4_0 :B1_7_0 :B1_8_0"/>

    <connection from="-E0" to="B1A1" fromLane="0" toLane="0" via=":B1_9_0" tl="B1" linkIndex="9" dir="r" state="o"/>
    <connection from="-E0" to="B1B0" fromLane="0" toLane="0" via=":B1_10_0" tl="B1" linkIndex="10" dir="s" state="o"/>
    <connection from="-E0" to="E1" fromLane="0" toLane="0" via=":B1_11_0" tl="B1" linkIndex="11" dir="l" state="o"/>
    <connection from="-E1" to="E0" fromLane="0" toLane="0" via=":B1_0_0" tl="B1" linkIndex="0" dir="r" state="O"/>
    <connection from="-E1" to="B1A1" fromLane="0" toLane="0" via=":B1_1_0" tl="B1" linkIndex="1" dir="s" state="O"/>
    <connection from="-E1" to="B1B0" fromLane="0" toLane="0" via=":B1_2_0" tl="B1" linkIndex="2" dir="l" state="o"/>
    <connection from="-E2" to="E4" fromLane="0" toLane="0" via=":B0_6_0" tl="B0" linkIndex="6" dir="r" state="O"/>
    <connection from="-E2" to="B0B1" fromLane="0" toLane="0" via=":B0_7_0" tl="B0" linkIndex="7" dir="s" state="O"/>
    <connection from="-E2" to="B0A0" fromLane="0" toLane="0" via=":B0_8_0" tl="B0" linkIndex="8" dir="l" state="o"/>
    <connection from="-E3" to="A0B0" fromLane="0" toLane="0" via=":A0_6_0" tl="A0" linkIndex="6" dir="r" state="o"/>
    <connection from="-E3" to="A0A1" fromLane="0" toLane="0" via=":A0_7_0" tl="A0" linkIndex="7" dir="s" state="o"/>
    <connection from="-E3" to="E5" fromLane="0" toLane="0" via=":A0_8_0" tl="A0" linkIndex="8" dir="l" state="o"/>
    <connection from="-E4" to="B0B1" fromLane="0" toLane="0" via=":B0_3_0" tl="B0" linkIndex="3" dir="r" state="o"/>
    <connection from="-E4" to="B0A0" fromLane="0" toLane="0" via=":B0_4_0" tl="B0" linkIndex="4" dir="s" state="o"/>
    <connection from="-E4" to="E2" fromLane="0" toLane="0" via=":B0_5_0" tl="B0" linkIndex="5" dir="l" state="o"/>
    <connection from="-E5" to="E3" fromLane="0" toLane="0" via=":A0_9_0" tl="A0" linkIndex="9" dir="r" state="O"/>
    <connection from="-E5" to="A0B0" fromLane="0" toLane="0" via=":A0_10_0" tl="A0" linkIndex="10" dir="s" state="O"/>
    <connection from="-E5" to="A0A1" fromLane="0" toLane="0" via=":A0_11_0" tl="A0" linkIndex="11" dir="l" state="o"/>
    <connection from="-E6" to="E7" fromLane="0" toLane="0" via=":A1_0_0" tl="A1" linkIndex="0" dir="r" state="o"/>
    <connection from="-E6" to="A1A0" fromLane="0" toLane="0" via=":A1_1_0" tl="A1" linkIndex="1" dir="s" state="o"/>
    <connection from="-E6" to="A1B1" fromLane="0" toLane="0" via=":A1_2_0" tl="A1" linkIndex="2" dir="l" state="o"/>
    <connection from="-E7" to="A1A0" fromLane="0" toLane="0" via=":A1_9_0" tl="A1" linkIndex="9" dir="r" state="O"/>
    <connection from="-E7" to="A1B1" fromLane="0" toLane="0" via=":A1_10_0" tl="A1" linkIndex="10" dir="s" state="O"/>
    <connection from="-E7" to="E6" fromLane="0" toLane="0" via=":A1_11_0" tl="A1" linkIndex="11" dir="l" state="o"/>
    <connection from="A0A1" to="A1B1" fromLane="0" toLane="0" via=":A1_6_0" tl="A1" linkIndex="6" dir="r" state="o"/>
    <connection from="A0A1" to="E6" fromLane="0" toLane="0" via=":A1_7_0" tl="A1" linkIndex="7" dir="s" state="o"/>
    <connection from="A0A1" to="E7" fromLane="0" toLane="0" via=":A1_8_0" tl="A1" linkIndex="8" dir="l" state="o"/>
    <connection from="A0B0" to="E2" fromLane="0" toLane="0" via=":B0_9_0" tl="B0" linkIndex="9" dir="r" state="o"/>
    <connection from="A0B0" to="E4" fromLane="0" toLane="0" via=":B0_10_0" tl="B0" linkIndex="10" dir="s" state="o"/>
    <connection from="A0B0" to="B0B1" fromLane="0" toLane="0" via=":B0_11_0" tl="B0" linkIndex="11" dir="l" state="o"/>
    <connection from="A1A0" to="E5" fromLane="0" toLane="0" via=":A0_0_0" tl="A0" linkIndex="0" dir="r" state="o"/>