<?xml version="1.0" encoding="UTF-8"?>

<!-- generated on 2026-01-16 19:28:30.756621 by Eclipse SUMO randomTrips.py v1_25_0+0000-ac6c5a6752d
<configuration>
    <net-file value="grid.net.xml"/>
    <route-file value="grid.rou.xml"/>
    <length value="True"/>
</configuration>
-->

<!-- generated on 2026-01-16T19:28:13.403260-08:00 by Eclipse SUMO duarouter 1.25.0
<duarouterConfiguration xmlns:xsi="http://www.w3.org/2001/XMLSchema-instance" xsi:noNamespaceSchemaLocation="http://sumo.dlr.de/xsd/duarouterConfiguration.xsd">

    <input>
        <net-file value="grid.net.xml"/>
        <route-files value="trips.trips.xml"/>
    </input>

    <output>
        <output-file value="grid.rou.xml"/>
        <alternatives-output value="NUL"/>
    </output>

    <time>
        <begin value="0"/>
        <end value="3600.0"/>
    </time>

    <report>
        <no-warnings value="true"/>
        <ignore-errors value="true"/>
        <no-step-log value="true"/>
    </report>

</duarouterConfiguration>
-->

<routes xmlns:xsi="http://www.w3.org/2001/XMLSchema-instance" xsi:noNamespaceSchemaLocation="http://sumo.dlr.de/xsd/routes_file.xsd">
    <vehicle id="0" depart="0.00">
        <route edges="BF5BE5 BE5BD5 BD5BC5 BC5BB5 BB5BA5 BA5AZ5 AZ5AY5 AY5AX5 AX5AW5 AW5AV5 AV5AU5 AU5AT5 AT5AS5 AS5AR5 AR5AQ5 AQ5AP5 AP5AO5 AO5AN5 AN5AM5 AM5AL5 AL5AK5 AK5AJ5 AJ5AI5 AI5AH5 AH5AG5 AG5AF5 AF5AE5 AE5AD5 AD5AC5 AC5AC6 AC6AC7 AC7AC8 AC8AC9 AC9AC10 AC10AC11 AC11AC12 AC12AC13 AC13AC14 AC14AC15 AC15AC16 AC16AC17 AC17AC18 AC18AC19 AC19AC20 AC20AC21 AC21AC22 AC22AC23 AC23AC24 AC24AC25 AC25AC26 AC26AC27 AC27AC28 AC28AC29 AC29AC30 AC30AC31 AC31AB31 AB31AB30"/>
    </vehicle>
    <vehicle id="1" depart="1.00">
        <route edges="AN49AM49 AM49AL49 AL49AL48 AL48AL47 AL47AL46 AL46AL45 AL45AL44 AL44AL43 AL43AL42 AL42AL41 AL41AL40 AL40AL39 AL39AL38 AL38AL37 AL37AL36 AL36AL35 AL35AL34 AL34AL33 AL33AL32 AL32AL31 AL31AL30 AL30AL29 AL29AL28 AL28AL27 AL27AL26 AL26AL25 AL25AL24 AL24AL23 AL23AK23"/>
    </vehicle>
    <vehicle id="2" depart="2.00">
        <route edges="BK41BJ41 BJ41BI41 BI41BH41 BH41BH42 BH42BH43 BH43BG43"/>
    </vehicle>
    <vehicle id="3" depart="3.00">
        <route edges="BS28BS29 BS29BS30 BS30BS31 BS31BS32 BS32BR32 BR32BQ32 BQ32BP32 BP32BO32 BO32BN32 BN32BM32 BM32BL32 BL32BK32 BK32BJ32 BJ32BI32 BI32BH32 BH32BG32 BG32BF32 BF32BE32 BE32BD32 BD32BC32 BC32BB32 BB32BA32 BA32AZ32 AZ32AY32 AY32AX32 AX32AW32 AW32AV32 AV32AU32 AU32AT32 AT32AS32 AS32AR32 AR32AQ32 AQ32AP32 AP32AO32 AO32AN32 AN32AM32 AM32AL32 AL32AK32 AK32AJ32 AJ32AI32 AI32AH32 AH32AG32 AG32AF32 AF32AE32 AE32AE33 AE33AE34 AE34AE35"/>
    </vehicle>
    <vehicle id="4" depart="4.00">
        <route edges="AV15AW15 AW15AW16 AW16AW17 AW17AW18 AW18AW19 AW19AW20 AW20AW21 AW21AW22 AW22AW23 AW23AW24 AW24AW25 AW25AW26 AW26AW27 AW27AW28 AW28AW29 AW29AW30 AW30AW31 AW31AW32 AW32AW33 AW33AW34 AW34AW35 AW35AW36 AW36AW37 AW37AW38 AW38AW39 AW39AW40 AW40AW41 AW41AW42 AW42AV42 AV42AU42 AU42AT42 AT42AS42 AS42AR42 AR42AQ42 AQ42AP42 AP42AO42 AO42AN42 AN42AM42 AM42AL42 AL42AK42 AK42AJ42 AJ42AI42 AI42AH42 AH42AG42 AG42AF42 AF42AE42 AE42AD42 AD42AC42 AC42AB42 AB42AA42"/>
    </vehicle>
    <vehicle id="5" depart="5.00">
        <route edges="AL12AM12 AM12AM13 AM13AM14 AM14AM15 AM15AM16 AM16AM17 AM17AM18 AM18AM19 AM19AM20 AM20AM21 AM21AN21 AN21AO21 AO21AP21 AP21AQ21 AQ21AR21 AR21AS21 AS21AT21 AT21AU21 AU21AV21 AV21AW21 AW21AX21 AX21AY21 AY21AZ21 AZ21AZ20"/>
    </vehicle>
    <vehicle id="6" depart="6.00">
        <route edges="AB35AA35 AA35AA34 AA34AA33 AA33AA32 AA32AA31 AA31AA30 AA30AA29 AA29AA28 AA28AA27 AA27AA26 AA26AA25 AA25AA24 AA24AA23 AA23AA22 AA22AA21 AA21AA20 AA20AA19 AA19AA18 AA18AA17 AA17AA16 AA16AA15 AA15AA14 AA14AA13 AA13AB13 AB13AC13 AC13AD13 AD13AE13 AE13AF13 AF13AG13 AG13AH13 AH13AI13 AI13AJ13 AJ13AK13 AK13AL13"/>
    </vehicle>
    <vehicle id="7" depart="7.00">
        <route edges="BG28BH28 BH28BH27 BH27BH26 BH26BH25 BH25BH24 BH24BH23 BH23BH22 BH22BH21 BH21BH20 BH20BG20 BG20BF20 BF20BE20 BE20BD20 BD20BC20 BC20BB20 BB20BB19 BB19BB18 BB18BB17 BB17BB16 BB16BB15 BB15BB14 BB14BB13 BB13BB12 BB12BB11 BB11BB10 BB10BB9 BB9BB8 BB8BB7 BB7BB6 BB6BB5 BB5BB4 BB4BB3 BB3BB2 BB2BB1 BB1BB0"/>
    </vehicle>
    <vehicle id="8" depart="8.00">
        <route edges="AL17AL16 AL16AM16 AM16AN16 AN16AO16 AO16AP16 AP16AQ16 AQ16AR16 AR16AS16 AS16AS17 AS17AS18 AS18AS19 AS19AS20 AS20AS21 AS21AS22 AS22AS23 AS23AS24 AS24AS25 AS25AS26 AS26AS27 AS27AS28 AS28AT28 AT28AU28 AU28AV28 AV28AW28 AW28AX28 AX28AY28 AY28AZ28 AZ28BA28 BA28BB28 BB28BC28 BC28BD28 BD28BE28"/>
    </vehicle>
    <vehicle id="9" depart="9.00">
        <route edges="BO23BP23 BP23BO23 BO23BN23 BN23BM23 BM23BL23 BL23BK23 BK23BJ23 BJ23BI23 BI23BH23 BH23BG23 BG23BF23 BF23BE23 BE23BD23 BD23BC23 BC23BB23 BB23BA23 BA23AZ23 AZ23AY23 AY23AX23 AX23AW23 AW23AV23 AV23AU23 AU23AT23 AT23AS23 AS23AR23 AR23AQ23 AQ23AP23 AP23AO23 AO23AN23 AN23AM23 AM23AL23 AL23AK23 AK23AJ23 AJ23AI23 AI23AH23 AH23AG23 AG23AF23 AF23AE23 AE23AD23 AD23AC23 AC23AB23 AB23AA23 AA23AA24 AA24AA25 AA25AA26 AA26AA27 AA27AA28 AA28AA29 AA29AA30"/>
    </vehicle>
    <vehicle id="10" depart="10.00">
        <route edges="BO16BN16 BN16BM16 BM16BL16 BL16BK16 BK16BJ16 BJ16BI16 BI16BI17 BI17BI18 BI18BI19 BI19BI20 BI20BI21 BI21BI22 BI22BI23 BI23BI24 BI24BI25 BI25BI26 BI26BI27 BI27BI28 BI28BI29 BI29BI30 BI30BI31 BI31BI32 BI32BI33 BI33BI34 BI34BI35 BI35BI36 BI36BI37 BI37BI38 BI38BI39 BI39BI40 BI40BI41 BI41BI42 BI42BI43 BI43BI44 BI44BI45 BI45BI46 BI46BH46"/>
    </vehicle>
    <vehicle id="11" depart="11.00">
        <route edges="AR13AS13 AS13AS12 AS12AS11 AS11AS10 AS10AR10 AR10AQ10 AQ10AP10 AP10AO10 AO10AN10 AN10AM10 AM10AL10 AL10AK10 AK10AJ10 AJ10AI10 AI10AH10 AH10AH9 AH9AH8 AH8AH7 AH7AH6"/>
    </vehicle>
    <vehicle id="12" depart="12.00">
        <route edges="BV38BV39 BV39BU39 BU39BT39 BT39BS39 BS39BR39 BR39BQ39 BQ39BP39 BP39BO39 BO39BN39 BN39BM39 BM39BL39 BL39BK39 BK39BJ39 BJ39BI39 BI39BH39 BH39BG39 BG39BF39 BF39BE39 BE39BD39 BD39BC39 BC39BB39 BB39BA39 BA39AZ39 AZ39AY39 AY39AX39 AX39AW39 AW39AV39 AV39AU39 AU39AT39 AT39AS39 AS39AR39 AR39AR38 AR38AR37 AR37AR36 AR36AR35 AR35AR34 AR34AR33 AR33AR32 AR32AR31 AR31AR30 AR30AR29 AR29AR28 AR28AR27 AR27AR26 AR26AR25 AR25AR24 AR24AR23 AR23AR22 AR22AR21 AR21AR20 AR20AR19 AR19AR18 AR18AR17 AR17AR16 AR16AR15 AR15AR14 AR14AR13 AR13AR12 AR12AR11 AR11AR10 AR10AR9 AR9AR8 AR8AR7 AR7AR6 AR6AR5 AR5AQ5 AQ5AQ6"/>
    </vehicle>
    <vehicle id="13" depart="13.00">
        <route edges="AE47AF47 AF47AF46 AF46AF45 AF45AF44 AF44AF43 AF43AF42 AF42AF41 AF41AF40 AF40AF39 AF39AF38 AF38AF37 AF37AF36 AF36AF35 AF35AF34 AF34AF33 AF33AF32 AF32AF31 AF31AF30 AF30AF29 AF29AF28 AF28AF27 AF27AF26 AF26AF25 AF25AF24 AF24AF23 AF23AF22 AF22AF21 AF21AF20 AF20AF19 AF19AF18 AF18AF17 AF17AF16 AF16AF15 AF15AF14 AF14AF13 AF13AF12 AF12AF11 AF11AE11"/>
    </vehicle>
    <vehicle id="14" depart="14.00">
        <route edges="BQ19BP19 BP19BO19 BO19BN19 BN19BM19 BM19BL19 BL19BK19 BK19BJ19 BJ19BI19 BI19BH19 BH19BG19 BG19BF19 BF19BE19 BE19BE18 BE18BE17 BE17BE16 BE16BE15 BE15BF15"/>
    </vehicle>
    <vehicle id="15" depart="15.00">
        <route edges="BO19BO18 BO18BN18 BN18BM18 BM18BL18 BL18BK18 BK18BK19 BK19BK20 BK20BK21 BK21BK22 BK22BK23 BK23BK24 BK24BK25 BK25BK26 BK26BK27"/>
    </vehicle>
    <vehicle id="16" depart="16.00">
        <route edges="BA45BA46 BA46BB46 BB46BC46 BC46BD46 BD46BE46 BE46BF46 BF46BG46 BG46BH46 BH46BI46 BI46BJ46 BJ46BK46 BK46BL46 BL46BM46 BM46BN46 BN46BO46 BO46BP46 BP46BQ46 BQ46BR46 BR46BS46 BS46BT46 BT46BU46 BU46BV46 BV46BW46 BW46BW45 BW45BW44 BW44BW43 BW43BW42 BW42BW41 BW41BW40 BW40BW39 BW39BW38 BW38BW37 BW37BW36 BW36BW35 BW35BW34 BW34BW33 BW33BW32 BW32BW31 BW31BW30 BW30BW29 BW29BW28 BW28BX28"/>
    </vehicle>
    <vehicle id="17" depart="17.00">
        <route edges="AS9AS10 AS10AS11 AS11AS12 AS12AS13 AS13AS14 AS14AS15 AS15AS16 AS16AS17 AS17AS18 AS18AS19 AS19AS20 AS20AS21 AS21AS22 AS22AS23 AS23AS24 AS24AS25 AS25AS26 AS26AS27 AS27AS28 AS28AS29 AS29AS30 AS30AS31 AS31AS32 AS32AS33 AS33AS34 AS34AS35 AS35AT35 AT35AU35 AU35AV35 AV35AW35 AW35AX35 AX35AY35 AY35AZ35 AZ35BA35 BA35BB35 BB35BC35"/>
    </vehicle>
    <vehicle id="18" depart="18.00">
        <route edges="BP23BP22 BP22BO22 BO22BO23 BO23BO24 BO24BO25 BO25BO26 BO26BO27 BO27BO28 BO28BO29 BO29BO30 BO30BO31 BO31BO32 BO32BO33 BO33BO34 BO34BO35 BO35BO36 BO36BO37 BO37BO38 BO38BO39 BO39BO40 BO40BO41 BO41BO42 BO42BO43 BO43BO44 BO44BO45 BO45BO46 BO46BO47 BO47BO48 BO48BO49 BO49BN49 BN49BM49 BM49BL49 BL49BK49 BK49BJ49 BJ49BI49 BI49BH49 BH49BG49 BG49BF49 BF49BE49 BE49BD49"/>
    </vehicle>
    <vehicle id="19" depart="19.00">
        <route edges="BQ5BP5 BP5BO5 BO5BN5 BN5BM5 BM5BL5 BL5BK5 BK5BJ5 BJ5BI5 BI5BH5 BH5BG5 BG5BF5 BF5BE5 BE5BD5 BD5BD6 BD6BD7 BD7BD8 BD8BD9 BD9BD10 BD10BD11 BD11BD12 BD12BD13 BD13BD14 BD14BD15 BD15BD16 BD16BD17 BD17BD18 BD18BD19 BD19BD20 BD20BD21 BD21BD22 BD22BD23 BD23BD24 BD24BD25 BD25BD26 BD26BD27 BD27BD28 BD28BD29 BD29BD30 BD30BD31 BD31BD32 BD32BD33 BD33BD34 BD34BD35 BD35BD36 BD36BD37 BD37BD38 BD38BD39 BD39BD40 BD40BD41 BD41BD42 BD42BD43 BD43BD44 BD44BD45 BD45BD46 BD46BD47 BD47BC47 BC47BC46"/>
    </vehicle>
    <vehicle id="20" depart="20.00">
        <route edges="BJ15BJ14 BJ14BI14 BI14BH14 BH14BG14 BG14BF14 BF14BE14 BE14BD14 BD14BC14 BC14BB14 BB14BA14 BA14AZ14 AZ14AY14 AY14AX14 AX14AW14 AW14AV14 AV14AU14 AU14AT14 AT14AS14 AS14AR14 AR14AQ14 AQ14AP14 AP14AO14 AO14AN14 AN14AM14 AM14AL14 AL14AK14 AK14AJ14 AJ14AI14 AI14AH14 AH14AG14 AG14AF14 AF14AE14 AE14AD14 AD14AC14 AC14AC15 AC15AC16 AC16AC17 AC17AC18 AC18AC19 AC19AC20 AC20AC21 AC21AC22 AC22AC23 AC23AC24 AC24AC25 AC25AC26 AC26AC27 AC27AC28 AC28AC29 AC29AC30 AC30AC31 AC31AC32 AC32AD32"/>
    </vehicle>
    <vehicle id="21" depart="21.00">
        <route edges="AL33AL34 AL34AL35 AL35AM35 AM35AN35 AN35AO35 AO35AO36"/>
    </vehicle>
    <vehicle id="22" depart="22.00">
        <route edges="AE19AD19 AD19AD20 AD20AD21 AD21AD22 AD22AD23 AD23AD24 AD24AD25 AD25AE25 AE25AF25 AF25AG25 AG25AH25 AH25AI25 AI25AJ25 AJ25AK25 AK25AL25 AL25AL26 AL26AL27 AL27AL28 AL28AL29 AL29AL30 AL30AL31 AL31AL32 AL32AL33 AL33AL34 AL34AL35 AL35AL36 AL36AL37 AL37AL38 AL38AL39 AL39AL40 AL40AL41 AL41AL42 AL42AL43 AL43AL44 AL44AL45"/>
    </vehicle>
    <vehicle id="23" depart="23.00">
        <route edges="AF20AF21 AF21AG21 AG21AG20 AG20AG19 AG19AG18 AG18AG17 AG17AG16 AG16AG15 AG15AG14 AG14AG13 AG13AG12 AG12AG11 AG11AG10 AG10AG9 AG9AG8 AG8AG7 AG7AG6 AG6AG5 AG5AG4 AG4AG3 AG3AG2 AG2AG1 AG1AG0 AG0AH0 AH0AI0 AI0AJ0 AJ0AK0 AK0AL0 AL0AM0 AM0AN0 AN0AO0 AO0AO1"/>
    </vehicle>
    <vehicle id="24" depart="24.00">
        <route edges="BF41BF42 BF42BE42 BE42BD42 BD42BC42 BC42BB42 BB42BA42 BA42AZ42 AZ42AY42 AY42AY41 AY41AY40 AY40AY39 AY39AY38 AY38AY37 AY37AY36 AY36AY35 AY35AY34 AY34AY33 AY33AY32 AY32AY31 AY31AY30 AY30AY29 AY29AY28 AY28AY27 AY27AY26 AY26AY25 AY25AY24 AY24AY23 AY23AX23 AX23AW23 AW23AV23 AV23AU23 AU23AT23 AT23AS23 AS23AS24"/>
    </vehicle>
    <vehicle id="25" depart="25.00">
        <route edges="AS35AS36 AS36AR36 AR36AQ36 AQ36AP36 AP36AO36 AO36AN36 AN36AM36 AM36AL36 AL36AK36 AK36AK37 AK37AL37"/>
    </vehicle>
    <vehicle id="26" depart="26.00">
        <route edges="AN30AN29 AN29AO29 AO29AP29 AP29AQ29 AQ29AR29 AR29AS29 AS29AT29 AT29AU29 AU29AV29 AV29AW29 AW29AX29 AX29AY29 AY29AZ29 AZ29BA29 BA29BB29 BB29BC29 BC29BD29 BD29BE29 BE29BF29 BF29BG29 BG29BH29 BH29BI29 BI29BJ29 BJ29BK29 BK29BL29 BL29BM29 BM29BN29 BN29BO29 BO29BP29 BP29BQ29 BQ29BR29 BR29BS29 BS29BT29 BT29BU29 BU29BU30 BU30BU31 BU31BU32 BU32BU33 BU33BU34 BU34BU35 BU35BU36 BU36BU37 BU37BU38"/>
    </vehicle>
    <vehicle id="27" depart="27.00">
        <route edges="BG24BG23 BG23BF23 BF23BF24 BF24BF25 BF25BF26 BF26BF27 BF27BF28 BF28BE28 BE28BD28"/>
    </vehicle>
    <vehicle id="28" depart="28.00">
        <route edges="AI41AJ41 AJ41AK41 AK41AL41 AL41AM41 AM41AN41 AN41AO41 AO41AP41 AP41AQ41 AQ41AR41 AR41AS41 AS41AT41 AT41AU41 AU41AV41 AV41AW41 AW41AX41 AX41AY41 AY41AZ41 AZ41BA41 BA41BB41 BB41BC41 BC41BD41 BD41BE41 BE41BF41 BF41BG41 BG41BH41 BH41BI41 BI41BJ41 BJ41BK41 BK41BK40 BK40BK39 BK39BK38 BK38BK37 BK37BK36 BK36BK35 BK35BK34 BK34BK33 BK33BK32 BK32BK31 BK31BK30 BK30BK29 BK29BK28 BK28BK27 BK27BK26 BK26BK25 BK25BJ25"/>
    </vehicle>
    <vehicle id="29" depart="29.00">
        <route edges="AI25AH25 AH25AH24 AH24AH23 AH23AH22 AH22AH21 AH21AH20 AH20AH19 AH19AH18 AH18AH17 AH17AH16 AH16AH15 AH15AH14 AH14AH13 AH13AH12 AH12AH11 AH11AH10 AH10AI10 AI10AJ10 AJ10AK10 AK10AL10 AL10AM10 AM10AN10 AN10AO10 AO10AP10 AP10AQ10 AQ10AR10 AR10AS10 AS10AT10 AT10AU10"/>
    </vehicle>
    <vehicle id="30" depart="30.00">
        <route edges="BX23BX22 BX22BX21 BX21BX20 BX20BX19 BX19BX18 BX18BX17 BX17BX16 BX16BX15 BX15BX14 BX14BX13 BX13BX12 BX12BX11 BX11BX10 BX10BX9 BX9BX8 BX8BX7 BX7BX6 BX6BW6 BW6BV6 BV6BU6 BU6BT6 BT6BS6 BS6BR6 BR6BQ6 BQ6BP6 BP6BO6 BO6BN6 BN6BM6 BM6BL6 BL6BK6 BK6BJ6 BJ6BI6 BI6BH6 BH6BG6 BG6BF6 BF6BF7"/>
    </vehicle>
    <vehicle id="31" depart="31.00">
        <route edges="BB46BC46 BC46BD46 BD46BE46 BE46BF46 BF46BG46 BG46BH46 BH46BI46 BI46BI45 BI45BI44 BI44BI43 BI43BI42 BI42BI41 BI41BI40 BI40BI39 BI39BI38 BI38BI37 BI37BI36 BI36BI35 BI35BI34 BI34BI33 BI33BI32 BI32BI31 BI31BI30 BI30BI29 BI29BI28 BI28BI27 BI27BI26 BI26BI25 BI25BI24 BI24BI23 BI23BI22 BI22BI21 BI21BI20 BI20BI19 BI19BI18 BI18BI17 BI17BI16 BI16BH16"/>
    </vehicle>
    <vehicle id="32" depart="32.00">
        <route edges="BP8BP9 BP9BO9 BO9BO8 BO8BO7 BO7BO6 BO6BO5 BO5BO4 BO4BO3 BO3BN3 BN3BM3 BM3BL3"/>
    </vehicle>
    <vehicle id="33" depart="33.00">
        <route edges="AL36AL35 AL35AK35 AK35AJ35 AJ35AI35 AI35AH35 AH35AG35 AG35AF35 AF35AE35 AE35AD35 AD35AC35 AC35AB35 AB35AB36 AB36AB37 AB37AB38 AB38AB39 AB39AB40 AB40AB41 AB41AB42 AB42AB43 AB43AB44 AB44AB45 AB45AB46 AB46AB47 AB47AC47"/>
    </vehicle>
    <vehicle id="34" depart="34.00">
        <route edges="AP49AO49 AO49AN49 AN49AN48 AN48AN47 AN47AN46 AN46AN45 AN45AN44 AN44AN43 AN43AN42 AN42AN41 AN41AN40 AN40AN39 AN39AN38 AN38AN37 AN37AN36 AN36AN35 AN35AN34 AN34AN33 AN33AN32 AN32AM32"/>
    </vehicle>
    <vehicle id="35" depart="35.00">
        <route edges="AK40AK41 AK41AL41 AL41AM41 AM41AN41 AN41AO41 AO41AP41 AP41AQ41 AQ41AR41 AR41AS41 AS41AT41 AT41AU41 AU41AV41 AV41AW41 AW41AX41 AX41AY41 AY41AZ41 AZ41BA41 BA41BB41 BB41BC41 BC41BD41 BD41BE41 BE41BF41 BF41BG41 BG41BH41 BH41BI41 BI41BJ41 BJ41BK41 BK41BL41 BL41BM41 BM41BN41 BN41BO41 BO41BP41 BP41BQ41 BQ41BR41 BR41BS41 BS41BT41 BT41BU41 BU41BU40 BU40BU39 BU39BU38 BU38BU37 BU37BU36 BU36BU35 BU35BU34 BU34BU33 BU33BU32 BU32BU31 BU31BU30 BU30BU29 BU29BU28 BU28BU27 BU27BU26 BU26BU25 BU25BU24 BU24BU23 BU23BU22 BU22BU21 BU21BU20 BU20BU19 BU19BU18 BU18BU17 BU17BU16 BU16BU15 BU15BU14 BU14BU13 BU13BU12 BU12BU11 BU11BU10 BU10BU9 BU9BU8 BU8BU7 BU7BU6 BU6BT6"/>
    </vehicle>
    <vehicle id="36" depart="36.00">
        <route edges="BR38BR37 BR37BQ37 BQ37BQ38 BQ38BQ39 BQ39BQ40 BQ40BQ41 BQ41BQ42 BQ42BQ43 BQ43BQ44 BQ44BQ45 BQ45BQ46 BQ46BQ47 BQ47BQ48 BQ48BQ49 BQ49BP49 BP49BO49 BO49BN49 BN49BM49 BM49BL49 BL49BK49 BK49BJ49 BJ49BI49 BI49BH49 BH49BG49 BG49BF49 BF49BE49 BE49BD49 BD49BC49 BC49BB49 BB49BA49 BA49AZ49 AZ49AY49 AY49AX49 AX49AW49 AW49AV49 AV49AU49 AU49AT49 AT49AS49 AS49AR49 AR49AQ49 AQ49AP49 AP49AP48 AP48AP47 AP47AO47"/>
    </vehicle>
    <vehicle id="37" depart="37.00">
        <route edges="BG40BG41 BG41BG42 BG42BG43 BG43BG44 BG44BG45 BG45BG46 BG46BG47 BG47BF47 BF47BE47 BE47BD47 BD47BC47 BC47BB47 BB47BA47 BA47AZ47 AZ47AY47 AY47AX47 AX47AW47 AW47AV47 AV47AU47 AU47AT47 AT47AT48"/>
    </vehicle>
    <vehicle id="38" depart="38.00">
        <route edges="BT32BU32 BU32BU31 BU31BU30 BU30BU29 BU29BU28 BU28BU27 BU27BU26 BU26BU25 BU25BU24 BU24BU23 BU23BU22 BU22BU21 BU21BU20 BU20BU19 BU19BU18 BU18BU17 BU17BU16 BU16BU15 BU15BU14 BU14BU13 BU13BU12 BU12BU11 BU11BU10 BU10BU9 BU9BU8 BU8BT8 BT8BS8 BS8BR8 BR8BQ8 BQ8BP8 BP8BO8 BO8BN8 BN8BM8 BM8BL8 BL8BK8 BK8BJ8 BJ8BI8 BI8BH8 BH8BG8 BG8BF8 BF8BE8 BE8BD8 BD8BC8 BC8BB8 BB8BA8 BA8AZ8 AZ8AY8 AY8AX8 AX8AW8 AW8AV8"/>
    </vehicle>
    <vehicle id="39" depart="39.00">
        <route edges="AN26AM26 AM26AM25 AM25AM24 AM24AM23 AM23AM22 AM22AM21 AM21AM20 AM20AM19 AM19AM18 AM18AM17 AM17AM16 AM16AM15 AM15AM14 AM14AM13 AM13AM12 AM12AM11 AM11AM10 AM10AM9 AM9AM8 AM8AM7 AM7AM6 AM6AM5 AM5AM4 AM4AM3 AM3AM2 AM2AN2"/>
    </vehicle>
    <vehicle id="40" depart="40.00">
        <route edges="BC11BB11 BB11BA11 BA11AZ11 AZ11AY11 AY11AX11 AX11AW11 AW11AV11 AV11AU11 AU11AT11 AT11AS11 AS11AR11 AR11AQ11 AQ11AP11 AP11AO11 AO11AN11 AN11AN12 AN12AN13 AN13AN14 AN14AN15 AN15AN16 AN16AN17 AN17AN18 AN18AN19 AN19AN20 AN20AO20"/>
    </vehicle>
    <vehicle id="41" depart="41.00">
        <route edges="BD18BD19 BD19BD20 BD20BD21 BD21BD22 BD22BD23 BD23BD24 BD24BD25 BD25BD26 BD26BD27 BD27BD28 BD28BD29 BD29BD30 BD30BD31 BD31BD32 BD32BD33 BD33BD34 BD34BD35 BD35BD36 BD36BD37 BD37BD38 BD38BD39 BD39BD40 BD40BE40 BE40BF40 BF40BG40 BG40BH40 BH40BI40 BI40BJ40 BJ40BK40 BK40BL40 BL40BM40 BM40BN40 BN40BO40 BO40BP40 BP40BQ40 BQ40BR40 BR40BS40 BS40BS39"/>
    </vehicle>
    <vehicle id="42" depart="42.00">
        <route edges="AU10AU11 AU11AU12 AU12AU13 AU13AU14 AU14AT14 AT14AS14 AS14AR14 AR14AQ14 AQ14AP14 AP14AO14 AO14AN14 AN14AM14 AM14AL14 AL14AL15"/>
    </vehicle>
    <vehicle id="43" depart="43.00">
        <route edges="BX47BX48 BX48BX49 BX49BW49 BW49BV49 BV49BU49 BU49BT49 BT49BS49 BS49BR49 BR49BQ49 BQ49BP49 BP49BO49 BO49BN49 BN49BM49 BM49BL49 BL49BK49 BK49BJ49 BJ49BI49 BI49BH49 BH49BG49 BG49BF49 BF49BE49 BE49BD49 BD49BC49 BC49BB49 BB49BA49 BA49BA48 BA48BA47 BA47BA46 BA46BA45 BA45BA44 BA44BA43 BA43BA42 BA42BA41 BA41BA40 BA40BA39 BA39BA38 BA38BA37 BA37BA36 BA36BA35 BA35BA34 BA34BA33 BA33BA32 BA32BA31 BA31BA30 BA30AZ30 AZ30AZ31"/>
    </vehicle>
    <vehicle id="44" depart="44.00">
        <route edges="AE43AE42 AE42AE41 AE41AE40 AE40AE39 AE39AE38 AE38AE37 AE37AE36 AE36AD36 AD36AC36 AC36AB36"/>
    </vehicle>
    <vehicle id="45" depart="45.00">
        <route edges="AF3AG3 AG3AH3 AH3AI3 AI3AJ3 AJ3AK3 AK3AL3 AL3AM3 AM3AN3 AN3AO3 AO3AP3 AP3AQ3 AQ3AR3 AR3AS3 AS3AT3 AT3AU3 AU3AV3 AV3AW3 AW3AX3 AX3AY3 AY3AZ3 AZ3BA3 BA3BB3 BB3BC3 BC3BD3 BD3BE3 BE3BF3 BF3BF4 BF4BF5 BF5BF6 BF6BF7 BF7BF8 BF8BF9 BF9BF10 BF10BF11 BF11BF12 BF12BF13 BF13BF14 BF14BF15 BF15BF16 BF16BF17 BF17BF18 BF18BF19 BF19BF20 BF20BF21 BF21BF22 BF22BF23 BF23BF24"/>
    </vehicle>
    <vehicle id="46" depart="46.00">
        <route edges="BN2BO2 BO2BO1 BO1BO0 BO0BN0 BN0BM0 BM0BL0 BL0BK0 BK0BJ0 BJ0BI0 BI0BH0 BH0BG0 BG0BF0 BF0BE0 BE0BD0 BD0BC0 BC0BB0 BB0BA0 BA0AZ0 AZ0AY0 AY0AX0 AX0AW0 AW0AV0 AV0AV1 AV1AV2 AV2AV3 AV3AV4 AV4AV5 AV5AV6 AV6AV7 AV7AV8 AV8AV9 AV9AV10 AV10AV11 AV11AV12 AV12AV13 AV13AV14 AV14AV15 AV15AV16 AV16AV17"/>
    </vehicle>
    <vehicle id="47" depart="47.00">
        <route edges="AD27AE27 AE27AF27 AF27AG27 AG27AH27 AH27AI27 AI27AJ27 AJ27AK27 AK27AL27 AL27AM27 AM27AN27 AN27AO27 AO27AP27 AP27AQ27 AQ27AR27 AR27AS27 AS27AT27 AT27AT26 AT26AT25 AT25AT24 AT24AT23 AT23AT22 AT22AT21 AT21AT20 AT20AT19 AT19AT18 AT18AT17 AT17AT16 AT16AS16"/>
    </vehicle>
    <vehicle id="48" depart="48.00">
        <route edges="BX43BW43 BW43BV43 BV43BU43 BU43BT43 BT43BS43 BS43BR43 BR43BQ43 BQ43BP43 BP43BO43 BO43BN43 BN43BM43 BM43BL43 BL43BK43 BK43BK42 BK42BK41 BK41BK40 BK40BK39 BK39BK38 BK38BK37 BK37BK36 BK36BK35 BK35BK34 BK34BK33 BK33BK32 BK32BK31 BK31BK30 BK30BK29 BK29BK28 BK28BK27 BK27BK26 BK26BK25 BK25BK24 BK24BK23 BK23BK22 BK22BK21 BK21BK20 BK20BK19 BK19BK18 BK18BK17 BK17BK16 BK16BK15 BK15BK14 BK14BK13 BK13BK12 BK12BK11 BK11BK10 BK10BK9 BK9BK8 BK8BK7 BK7BK6 BK6BK5 BK5BK4 BK4BK3 BK3BK2 BK2BJ2 BJ2BI2 BI2BH2 BH2BG2 BG2BF2 BF2BE2 BE2BD2 BD2BC2 BC2BB2 BB2BA2 BA2AZ2"/>
    </vehicle>
    <vehicle id="49" depart="49.00">
        <route edges="BW23BX23 BX23BW23 BW23BV23 BV23BU23 BU23BT23 BT23BS23 BS23BR23 BR23BQ23 BQ23BQ24 BQ24BQ25 BQ25BQ26 BQ26BQ27 BQ27BQ28 BQ28BQ29 BQ29BQ30 BQ30BQ31 BQ31BQ32 BQ32BQ33 BQ33BQ34 BQ34BQ35 BQ35BQ36 BQ36BQ37 BQ37BQ38 BQ38BQ39 BQ39BQ40 BQ40BQ41 BQ41BQ42 BQ42BQ43 BQ43BQ44 BQ44BQ45 BQ45BQ46 BQ46BQ47 BQ47BQ48 BQ48BQ49"/>
    </vehicle>
    <vehicle id="50" depart="50.00">
        <route edges="AA43AB43 AB43AC43 AC43AD43 AD43AE43 AE43AF43 AF43AG43 AG43AH43 AH43AI43 AI43AJ43 AJ43AK43 AK43AL43 AL43AM43 AM43AN43 AN43AO43 AO43AP43 AP43AQ43 AQ43AR43 AR43AS43 AS43AT43 AT43AU43 AU43AV43 AV43AW43 AW43AX43 AX43AY43 AY43AZ43 AZ43BA43 BA43BB43 BB43BC43 BC43BD43 BD43BE43 BE43BF43 BF43BG43 BG43BH43 BH43BI43 BI43BJ43 BJ43BJ42 BJ42BJ41 BJ41BJ40 BJ40BJ39 BJ39BJ38 BJ38BJ37 BJ37BJ36 BJ36BJ35 BJ35BJ34 BJ34BJ33 BJ33BJ32 BJ32BJ31 BJ31BJ30 BJ30BJ29 BJ29BJ28 BJ28BJ27 BJ27BJ26 BJ26BJ25 BJ25BJ24 BJ24BJ23 BJ23BJ22 BJ22BJ21 BJ21BJ20 BJ20BJ19 BJ19BJ18 BJ18BJ17 BJ17BJ16 BJ16BJ15 BJ15BJ14 BJ14BJ13 BJ13BJ12 BJ12BJ11 BJ11BJ10 BJ10BJ9 BJ9BJ8 BJ8BJ7 BJ7BJ6 BJ6BJ5"/>
    </vehicle>
    <vehicle id="51" depart="51.00">
        <route edges="BH9BH8 BH8BG8 BG8BF8 BF8BE8 BE8BD8 BD8BC8 BC8BB8 BB8BB9 BB9BB10 BB10BB11 BB11BB12 BB12BB13 BB13BB14 BB14BB15 BB15BB16 BB16BB17 BB17BB18 BB18BB19 BB19BB20 BB20BB21 BB21BB22 BB22BB23 BB23BB24 BB24BB25 BB25BB26 BB26BB27 BB27BB28 BB28BB29 BB29BB30 BB30BB31 BB31BB32 BB32BB33 BB33BB34 BB34BB35 BB35BB36 BB36BB37 BB37BB38 BB38BB39 BB39BB40 BB40BB41 BB41BB42 BB42BB43 BB43BB44 BB44BB45 BB45BB46 BB46BB47 BB47BA47 BA47BA46"/>
    </vehicle>
    <vehicle id="52" depart="52.00">
        <route edges="AN2AO2 AO2AO3 AO3AO4 AO4AO5 AO5AO6 AO6AO7 AO7AO8 AO8AP8 AP8AQ8 AQ8AR8 AR8AS8 AS8AT8 AT8AU8 AU8AV8 AV8AW8 AW8AX8 AX8AY8 AY8AZ8 AZ8BA8 BA8BB8 BB8BC8 BC8BD8 BD8BE8 BE8BF8 BF8BG8"/>
    </vehicle>
    <vehicle id="53" depart="53.00">
        <route edges="AF44AF43 AF43AG43 AG43AG44 AG44AH44 AH44AI44 AI44AJ44 AJ44AK44 AK44AL44 AL44AM44 AM44AN44 AN44AO44 AO44AP44 AP44AQ44 AQ44AR44 AR44AS44 AS44AT44 AT44AU44 AU44AV44 AV44AV43"/>
    </vehicle>
    <vehicle id="54" depart="54.00">
        <route edges="AW41AW40 AW40AW39 AW39AW38 AW38AW37 AW37AX37 AX37AY37 AY37AZ37 AZ37BA37 BA37BB37 BB37BC37 BC37BD37 BD37BE37 BE37BF37 BF37BG37 BG37BH37 BH37BI37 BI37BJ37 BJ37BK37 BK37BL37 BL37BM37 BM37BN37 BN37BO37 BO37BP37 BP37BQ37 BQ37BR37 BR37BS37 BS37BT37 BT37BU37 BU37BV37 BV37BV36 BV36BV35 BV35BV34 BV34BV33 BV33BV32 BV32BV31 BV31BV30 BV30BU30"/>
    </vehicle>
    <vehicle id="55" depart="55.00">
        <route edges="BR37BQ37 BQ37BP37 BP37BO37 BO37BN37 BN37BM37 BM37BL37 BL37BK37 BK37BJ37 BJ37BI37 BI37BH37 BH37BG37 BG37BF37 BF37BE37 BE37BD37 BD37BC37 BC37BB37 BB37BA37 BA37AZ37 AZ37AY37 AY37AX37 AX37AW37 AW37AV37 AV37AU37 AU37AT37 AT37AS37 AS37AR37 AR37AQ37 AQ37AQ36 AQ36AQ35 AQ35AQ34 AQ34AQ33 AQ33AQ32 AQ32AQ31 AQ31AQ30 AQ30AQ29 AQ29AQ28 AQ28AQ27 AQ27AQ26 AQ26AQ25 AQ25AQ24 AQ24AQ23 AQ23AQ22 AQ22AP22 AP22AO22 AO22AN22 AN22AN23"/>
    </vehicle>
    <vehicle id="56" depart="56.00">
        <route edges="AZ10AZ9 AZ9AY9 AY9AX9 AX9AW9 AW9AV9 AV9AU9 AU9AT9 AT9AS9 AS9AR9 AR9AQ9 AQ9AP9 AP9AO9 AO9AN9 AN9AM9 AM9AL9 AL9AK9 AK9AJ9 AJ9AJ10 AJ10AJ11 AJ11AJ12 AJ12AJ13 AJ13AK13"/>
    </vehicle>
    <vehicle id="57" depart="57.00">
        <route edges="BT29BT28 BT28BT27 BT27BT26 BT26BT25 BT25BS25 BS25BR25 BR25BQ25"/>
    </vehicle>
    <vehicle id="58" depart="58.00">
        <route edges="AP10AP11 AP11AP12 AP12AP13 AP13AP14 AP14AP15 AP15AP16 AP16AP17 AP17AP18 AP18AP19 AP19AP20 AP20AP21 AP21AP22 AP22AP23 AP23AP24 AP24AP25 AP25AP26 AP26AP27 AP27AP28 AP28AP29 AP29AP30 AP30AP31 AP31AP32 AP32AP33 AP33AP34 AP34AP35 AP35AP36 AP36AP37 AP37AP38 AP38AP39 AP39AP40 AP40AP41 AP41AP42 AP42AP43 AP43AP44 AP44AP45 AP45AP46 AP46AP47 AP47AP48 AP48AP49 AP49AQ49 AQ49AR49 AR49AS49 AS49AT49 AT49AU49 AU49AV49 AV49AW49 AW49AX49 AX49AY49 AY49AZ49 AZ49BA49 BA49BB49 BB49BC49 BC49BD49 BD49BE49 BE49BF49 BF49BG49"/>
    </vehicle>
    <vehicle id="59" depart="59.00">
        <route edges="BE27BE28 BE28BE29 BE29BE30 BE30BE31 BE31BE32 BE32BE33 BE33BE34 BE34BE35 BE35BE36 BE36BD36 BD36BC36 BC36BB36 BB36BA36 BA36AZ36 AZ36AY36 AY36AX36 AX36AW36 AW36AV36 AV36AU36 AU36AT36 AT36AS36 AS36AR36 AR36AQ36 AQ36AP36 AP36AO36 AO36AN36 AN36AM36 AM36AL36 AL36AK36 AK36AJ36 AJ36AI36 AI36AH36 AH36AH37 AH37AH38 AH38AH39 AH39AH40 AH40AH41 AH41AH42 AH42AH43 AH43AH44 AH44AH45 AH45AH46 AH46AH47"/>
    </vehicle>
    <vehicle id="60" depart="60.00">
        <route edges="BL9BL8 BL8BL7 BL7BK7 BK7BJ7 BJ7BI7 BI7BH7 BH7BG7 BG7BF7 BF7BE7 BE7BD7 BD7BC7 BC7BB7 BB7BA7 BA7BA6"/>
    </vehicle>
    <vehicle id="61" depart="61.00">
        <route edges="BM45BM44 BM44BM43 BM43BM42 BM42BM41 BM41BM40 BM40BM39 BM39BM38 BM38BM37 BM37BM36 BM36BM35 BM35BM34 BM34BM33 BM33BM32 BM32BL32 BL32BK32 BK32BJ32 BJ32BI32 BI32BH32 BH32BG32 BG32BF32 BF32BE32 BE32BD32 BD32BC32 BC32BB32 BB32BA32 BA32AZ32"/>
    </vehicle>
    <vehicle id="62" depart="62.00">
        <route edges="AA11AA10 AA10AB10 AB10AC10 AC10AD10 AD10AE10 AE10AF10 AF10AG10 AG10AH10 AH10AH11 AH11AH12 AH12AH13 AH13AH14 AH14AH15 AH15AH16 AH16AH17 AH17AH18 AH18AH19 AH19AH20 AH20AH21 AH21AH22 AH22AI22 AI22AJ22 AJ22AK22 AK22AL22 AL22AM22 AM22AN22 AN22AO22 AO22AP22 AP22AQ22 AQ22AR22"/>
    </vehicle>
    <vehicle id="63" depart="63.00">
        <route edges="AB19AC19 AC19AD19 AD19AE19 AE19AF19 AF19AG19 AG19AH19 AH19AI19 AI19AJ19 AJ19AK19 AK19AL19 AL19AM19 AM19AN19 AN19AO19 AO19AP19 AP19AQ19 AQ19AR19 AR19AS19 AS19AT19 AT19AU19 AU19AV19 AV19AW19 AW19AX19 AX19AY19 AY19AZ19 AZ19BA19 BA19BB19 BB19BC19 BC19BD19 BD19BE19 BE19BF19 BF19BG19 BG19BH19 BH19BI19 BI19BJ19 BJ19BK19 BK19BL19 BL19BM19 BM19BN19 BN19BO19 BO19BP19 BP19BQ19 BQ19BR19 BR19BS19 BS19BT19 BT19BU19 BU19BU20 BU20BT20"/>
    </vehicle>
    <vehicle id="64" depart="64.00">
        <route edges="BR43BQ43 BQ43BP43 BP43BP42 BP42BP41 BP41BP40 BP40BP39 BP39BP38 BP38BP37 BP37BP36 BP36BP35 BP35BP34 BP34BP33 BP33BP32 BP32BP31 BP31BP30 BP30BP29 BP29BP28 BP28BQ28"/>
    </vehicle>
    <vehicle id="65" depart="65.00">
        <route edges="AP30AP31 AP31AO31 AO31AN31 AN31AM31 AM31AL31 AL31AK31 AK31AJ31 AJ31AI31 AI31AI30 AI30AI29 AI29AI28 AI28AI27 AI27AI26 AI26AI25 AI25AI24 AI24AI23 AI23AI22 AI22AI21 AI21AI20 AI20AI19 AI19AI18 AI18AI17 AI17AI16 AI16AI15 AI15AH15 AH15AG15 AG15AF15 AF15AE15 AE15AD15 AD15AC15"/>
    </vehicle>
    <vehicle id="66" depart="66.00">
        <route edges="BR41BR40 BR40BR39 BR39BR38 BR38BR37 BR37BR36 BR36BR35 BR35BR34 BR34BR33 BR33BS33 BS33BT33 BT33BU33 BU33BV33 BV33BV32 BV32BV31 BV31BV30 BV30BV29 BV29BV28 BV28BV27 BV27BV26 BV26BV25 BV25BV24 BV24BV23 BV23BV22 BV22BV21 BV21BV20 BV20BV19 BV19BV18 BV18BV17 BV17BV16 BV16BV15 BV15BV14"/>
    </vehicle>
    <vehicle id="67" depart="67.00">
        <route edges="AE31AE32 AE32AF32 AF32AG32 AG32AH32 AH32AI32 AI32AJ32 AJ32AK32 AK32AL32 AL32AM32 AM32AN32 AN32AO32 AO32AP32 AP32AQ32 AQ32AR32 AR32AS32 AS32AT32 AT32AU32 AU32AV32 AV32AW32 AW32AX32 AX32AY32 AY32AY31 AY31AY30 AY30AY29 AY29AY28 AY28AY27 AY27AY26 AY26AY25 AY25AY24 AY24AY23 AY23AY22"/>
    </vehicle>
    <vehicle id="68" depart="68.00">
        <route edges="AD3AD4 AD4AD5 AD5AE5 AE5AF5 AF5AG5 AG5AH5 AH5AI5 AI5AJ5 AJ5AK5 AK5AL5 AL5AM5 AM5AN5 AN5AO5 AO5AP5 AP5AQ5 AQ5AR5 AR5AS5 AS5AT5 AT5AU5 AU5AV5 AV5AW5 AW5AX5 AX5AY5 AY5AZ5 AZ5BA5 BA5BB5 BB5BC5 BC5BD5 BD5BE5 BE5BF5 BF5BG5 BG5BH5 BH5BI5 BI5BJ5 BJ5BK5 BK5BL5 BL5BK5"/>
    </vehicle>
    <vehicle id="69" depart="69.00">
        <route edges="BM17BL17 BL17BK17 BK17BJ17 BJ17BI17 BI17BH17 BH17BG17 BG17BF17 BF17BE17 BE17BD17 BD17BC17 BC17BB17 BB17BA17 BA17AZ17 AZ17AY17 AY17AX17 AX17AW17 AW17AV17 AV17AU17 AU17AT17 AT17AS17 AS17AR17 AR17AQ17 AQ17AP17 AP17AO17 AO17AN17 AN17AM17 AM17AL17 AL17AK17 AK17AJ17 AJ17AI17 AI17AH17 AH17AG17 AG17AG18 AG18AG19 AG19AG20 AG20AG21 AG21AG22 AG22AG23 AG23AG24 AG24AG25 AG25AG26 AG26AG27 AG27AG28 AG28AG29 AG29AG30 AG30AG31 AG31AG32 AG32AG33 AG33AG34 AG34AG35 AG35AG36 AG36AG37 AG37AF37"/>
    </vehicle>
    <vehicle id="70" depart="70.00">
        <route edges="AX44AX45 AX45AY45 AY45AZ45 AZ45BA45 BA45BB45 BB45BB44 BB44BB43 BB43BB42 BB42BB41 BB41BB40 BB40BB39 BB39BB38 BB38BB37 BB37BB36 BB36BB35 BB35BB34 BB34BB33 BB33BB32 BB32BB31 BB31BB30 BB30BB29"/>
    </vehicle>
    <vehicle id="71" depart="71.00">
        <route edges="AN26AN27 AN27AN28 AN28AN29 AN29AO29 AO29AP29 AP29AQ29 AQ29AR29 AR29AS29 AS29AT29 AT29AU29 AU29AV29 AV29AW29 AW29AX29 AX29AY29 AY29AZ29 AZ29BA29 BA29BB29 BB29BC29 BC29BD29 BD29BE29 BE29BF29 BF29BG29 BG29BH29 BH29BI29 BI29BJ29 BJ29BK29 BK29BL29 BL29BM29 BM29BN29 BN29BO29 BO29BP29 BP29BQ29 BQ29BR29 BR29BS29"/>
    </vehicle>
    <vehicle id="72" depart="72.00">
        <route edges="AV18AW18 AW18AV18 AV18AU18 AU18AT18 AT18AS18 AS18AR18 AR18AQ18 AQ18AP18 AP18AO18 AO18AN18 AN18AM18 AM18AL18 AL18AK18 AK18AK19 AK19AK20 AK20AK21 AK21AK22 AK22AK23 AK23AK24 AK24AK25 AK25AK26 AK26AK27 AK27AK28 AK28AK29 AK29AK30 AK30AK31 AK31AK32 AK32AK33 AK33AK34 AK34AK35 AK35AK36 AK36AK37 AK37AK38 AK38AK39 AK39AK40 AK40AK41 AK41AK42 AK42AK43"/>
    </vehicle>
    <vehicle id="73" depart="73.00">
        <route edges="BA7BA6 BA6BB6 BB6BC6 BC6BD6 BD6BE6 BE6BF6 BF6BG6 BG6BH6 BH6BI6 BI6BJ6 BJ6BK6 BK6BK7 BK7BK8 BK8BK9 BK9BK10 BK10BK11 BK11BK12 BK12BK13 BK13BK14 BK14BK15 BK15BK16 BK16BK17 BK17BK18 BK18BK19 BK19BK20 BK20BK21 BK21BK22 BK22BK23 BK23BK24 BK24BK25 BK25BK26 BK26BK27 BK27BJ27"/>
    </vehicle>
    <vehicle id="74" depart="74.00">
        <route edges="AK19AK20 AK20AL20 AL20AM20 AM20AN20 AN20AO20 AO20AP20 AP20AP19 AP19AP18 AP18AP17 AP17AP16 AP16AP15 AP15AP14 AP14AP13 AP13AP12 AP12AP11 AP11AP10 AP10AP9 AP9AP8 AP8AP7 AP7AP6 AP6AP5 AP5AP4 AP4AP3 AP3AQ3"/>
    </vehicle>
    <vehicle id="75" depart="75.00">
        <route edges="BX3BX4 BX4BX5 BX5BX6 BX6BX7 BX7BX8 BX8BX9 BX9BX10 BX10BX11 BX11BW11 BW11BV11 BV11BU11 BU11BT11 BT11BS11 BS11BR11 BR11BQ11 BQ11BP11 BP11BO11 BO11BN11 BN11BM11 BM11BL11 BL11BK11 BK11BJ11 BJ11BI11 BI11BH11 BH11BG11 BG11BG12 BG12BG13 BG13BG14 BG14BG15 BG15BG16 BG16BG17 BG17BG18 BG18BG19 BG19BG20 BG20BG21 BG21BG22 BG22BG23 BG23BG24 BG24BG25 BG25BG26 BG26BG27 BG27BG28 BG28BH28"/>
    </vehicle>
    <vehicle id="76" depart="76.00">