<?xml version="1.0" encoding="UTF-8"?>
<configuration>
    <input>
        <net-file value="grid_tls_fixed.net.xml"/>
        <route-files value="grid.rou.xml"/>
    </input>
</configuration>
