<?xml version="1.0" encoding="UTF-8"?>
<configuration>
    <input>
        <net-file value="grid_tls_ready.net.xml"/>
        <route-files value="grid.rou.xml"/>
    </input>


    <time>
        <begin value="0"/>
        <end value="3600"/>
    </time>
</configuration>
