<?xml version="1.0" encoding="UTF-8"?>

<!-- generated on 2026-01-16 19:28:10.605718 by Eclipse SUMO randomTrips.py v1_25_0+0000-ac6c5a6752d
<configuration>
    <net-file value="grid.net.xml"/>
    <route-file value="grid.rou.xml"/>
    <length value="True"/>
</configuration>
-->

<routes xmlns:xsi="http://www.w3.org/2001/XMLSchema-instance" xsi:noNamespaceSchemaLocation="http://sumo.dlr.de/xsd/routes_file.xsd">
    <trip id="0" depart="0.00" from="BF5BE5" to="AB31AB30"/>
    <trip id="1" depart="1.00" from="AN49AM49" to="AL23AK23"/>
    <trip id="2" depart="2.00" from="BK41BJ41" to="BH43BG43"/>
    <trip id="3" depart="3.00" from="BS28BS29" to="AE34AE35"/>
    <trip id="4" depart="4.00" from="AV15AW15" to="AB42AA42"/>
    <trip id="5" depart="5.00" from="AL12AM12" to="AZ21AZ20"/>
    <trip id="6" depart="6.00" from="AB35AA35" to="AK13AL13"/>
    <trip id="7" depart="7.00" from="BG28BH28" to="BB1BB0"/>
    <trip id="8" depart="8.00" from="AL17AL16" to="BD28BE28"/>
    <trip id="9" depart="9.00" from="BO23BP23" to="AA29AA30"/>
    <trip id="10" depart="10.00" from="BO16BN16" to="BI46BH46"/>
    <trip id="11" depart="11.00" from="AR13AS13" to="AH7AH6"/>
    <trip id="12" depart="12.00" from="BV38BV39" to="AQ5AQ6"/>
    <trip id="13" depart="13.00" from="AE47AF47" to="AF11AE11"/>
    <trip id="14" depart="14.00" from="BQ19BP19" to="BE15BF15"/>
    <trip id="15" depart="15.00" from="BO19BO18" to="BK26BK27"/>
    <trip id="16" depart="16.00" from="BA45BA46" to="BW28BX28"/>
    <trip id="17" depart="17.00" from="AS9AS10" to="BB35BC35"/>
    <trip id="18" depart="18.00" from="BP23BP22" to="BE49BD49"/>
    <trip id="19" depart="19.00" from="BQ5BP5" to="BC47BC46"/>
    <trip id="20" depart="20.00" from="BJ15BJ14" to="AC32AD32"/>
    <trip id="21" depart="21.00" from="AL33AL34" to="AO35AO36"/>
    <trip id="22" depart="22.00" from="AE19AD19" to="AL44AL45"/>
    <trip id="23" depart="23.00" from="AF20AF21" to="AO0AO1"/>
    <trip id="24" depart="24.00" from="BF41BF42" to="AS23AS24"/>
    <trip id="25" depart="25.00" from="AS35AS36" to="AK37AL37"/>
    <trip id="26" depart="26.00" from="AN30AN29" to="BU37BU38"/>
    <trip id="27" depart="27.00" from="BG24BG23" to="BE28BD28"/>
    <trip id="28" depart="28.00" from="AI41AJ41" to="BK25BJ25"/>
    <trip id="29" depart="29.00" from="AI25AH25" to="AT10AU10"/>
    <trip id="30" depart="30.00" from="BX23BX22" to="BF6BF7"/>
    <trip id="31" depart="31.00" from="BB46BC46" to="BI16BH16"/>
    <trip id="32" depart="32.00" from="BP8BP9" to="BM3BL3"/>
    <trip id="33" depart="33.00" from="AL36AL35" to="AB47AC47"/>
    <trip id="34" depart="34.00" from="AP49AO49" to="AN32AM32"/>
    <trip id="35" depart="35.00" from="AK40AK41" to="BU6BT6"/>
    <trip id="36" depart="36.00" from="BR38BR37" to="AP47AO47"/>
    <trip id="37" depart="37.00" from="BG40BG41" to="AT47AT48"/>
    <trip id="38" depart="38.00" from="BT32BU32" to="AW8AV8"/>
    <trip id="39" depart="39.00" from="AN26AM26" to="AM2AN2"/>
    <trip id="40" depart="40.00" from="BC11BB11" to="AN20AO20"/>
    <trip id="41" depart="41.00" from="BD18BD19" to="BS40BS39"/>
    <trip id="42" depart="42.00" from="AU10AU11" to="AL14AL15"/>
    <trip id="43" depart="43.00" from="BX47BX48" to="AZ30AZ31"/>
    <trip id="44" depart="44.00" from="AE43AE42" to="AC36AB36"/>
    <trip id="45" depart="45.00" from="AF3AG3" to="BF23BF24"/>
    <trip id="46" depart="46.00" from="BN2BO2" to="AV16AV17"/>
    <trip id="47" depart="47.00" from="AD27AE27" to="AT16AS16"/>
    <trip id="48" depart="48.00" from="BX43BW43" to="BA2AZ2"/>
    <trip id="49" depart="49.00" from="BW23BX23" to="BQ48BQ49"/>
    <trip id="50" depart="50.00" from="AA43AB43" to="BJ6BJ5"/>
    <trip id="51" depart="51.00" from="BH9BH8" to="BA47BA46"/>
    <trip id="52" depart="52.00" from="AN2AO2" to="BF8BG8"/>
    <trip id="53" depart="53.00" from="AF44AF43" to="AV44AV43"/>
    <trip id="54" depart="54.00" from="AW41AW40" to="BV30BU30"/>
    <trip id="55" depart="55.00" from="BR37BQ37" to="AN22AN23"/>
    <trip id="56" depart="56.00" from="AZ10AZ9" to="AJ13AK13"/>
    <trip id="57" depart="57.00" from="BT29BT28" to="BR25BQ25"/>
    <trip id="58" depart="58.00" from="AP10AP11" to="BF49BG49"/>
    <trip id="59" depart="59.00" from="BE27BE28" to="AH46AH47"/>
    <trip id="60" depart="60.00" from="BL9BL8" to="BA7BA6"/>
    <trip id="61" depart="61.00" from="BM45BM44" to="BA32AZ32"/>
    <trip id="62" depart="62.00" from="AA11AA10" to="AQ22AR22"/>
    <trip id="63" depart="63.00" from="AB19AC19" to="BU20BT20"/>
    <trip id="64" depart="64.00" from="BR43BQ43" to="BP28BQ28"/>
    <trip id="65" depart="65.00" from="AP30AP31" to="AD15AC15"/>
    <trip id="66" depart="66.00" from="BR41BR40" to="BV15BV14"/>
    <trip id="67" depart="67.00" from="AE31AE32" to="AY23AY22"/>
    <trip id="68" depart="68.00" from="AD3AD4" to="BL5BK5"/>
    <trip id="69" depart="69.00" from="BM17BL17" to="AG37AF37"/>
    <trip id="70" depart="70.00" from="AX44AX45" to="BB30BB29"/>
    <trip id="71" depart="71.00" from="AN26AN27" to="BR29BS29"/>
    <trip id="72" depart="72.00" from="AV18AW18" to="AK42AK43"/>
    <trip id="73" depart="73.00" from="BA7BA6" to="BK27BJ27"/>
    <trip id="74" depart="74.00" from="AK19AK20" to="AP3AQ3"/>
    <trip id="75" depart="75.00" from="BX3BX4" to="BG28BH28"/>
    <trip id="76" depart="76.00" from="AV6AW6" to="AZ49AZ48"/>
    <trip id="77" depart="77.00" from="AG20AF20" to="AL26AL27"/>
    <trip id="78" depart="78.00" from="AQ9AQ10" to="BD26BD27"/>
    <trip id="79" depart="79.00" from="AL38AM38" to="AL16AL17"/>
    <trip id="80" depart="80.00" from="AD44AC44" to="BF31BF30"/>
    <trip id="81" depart="81.00" from="AL36AK36" to="BT12BT13"/>
    <trip id="82" depart="82.00" from="BQ45BR45" to="AD43AE43"/>
    <trip id="83" depart="83.00" from="AM10AN10" to="BH26BH25"/>
    <trip id="84" depart="84.00" from="AK48AK49" to="AG45AH45"/>
    <trip id="85" depart="85.00" from="BU34BV34" to="BC32BD32"/>
    <trip id="86" depart="86.00" from="AX39AX38" to="BN13BN14"/>
    <trip id="87" depart="87.00" from="BO1BN1" to="AJ3AJ4"/>
    <trip id="88" depart="88.00" from="AF11AF12" to="AV36AV35"/>
    <trip id="89" depart="89.00" from="AV1AU1" to="AX26AX25"/>
    <trip id="90" depart="90.00" from="BK25BJ25" to="BH36BG36"/>
    <trip id="91" depart="91.00" from="BW8BW7" to="AF15AF14"/>
    <trip id="92" depart="92.00" from="AU18AT18" to="AR11AR12"/>
    <trip id="93" depart="93.00" from="BQ5BP5" to="AM34AN34"/>
    <trip id="94" depart="94.00" from="AJ3AI3" to="AW2AX2"/>
    <trip id="95" depart="95.00" from="AV15AW15" to="AO11AN11"/>
    <trip id="96" depart="96.00" from="AM37AM38" to="BT7BT8"/>
    <trip id="97" depart="97.00" from="AW18AW17" to="BQ4BQ3"/>
    <trip id="98" depart="98.00" from="BB31BB32" to="AC43AC44"/>
    <trip id="99" depart="99.00" from="BX7BX6" to="BP38BP39"/>
    <trip id="100" depart="100.00" from="BW19BX19" to="BU14BU13"/>
    <trip id="101" depart="101.00" from="BQ21BP21" to="AI31AH31"/>
    <trip id="102" depart="102.00" from="AY22AY23" to="AK47AK46"/>
    <trip id="103" depart="103.00" from="AU14AU13" to="AD16AE16"/>
    <trip id="104" depart="104.00" from="AT0AT1" to="BX10BX9"/>
    <trip id="105" depart="105.00" from="AN26AO26" to="BN12BN11"/>
    <trip id="106" depart="106.00" from="AW44AW45" to="AV18AV19"/>
    <trip id="107" depart="107.00" from="BV38BW38" to="BX40BX41"/>
    <trip id="108" depart="108.00" from="BB43BC43" to="BJ46BJ45"/>
    <trip id="109" depart="109.00" from="AH5AH6" to="AO6AP6"/>
    <trip id="110" depart="110.00" from="BW19BV19" to="BC6BB6"/>
    <trip id="111" depart="111.00" from="BB13BB14" to="BL21BM21"/>
    <trip id="112" depart="112.00" from="AD13AC13" to="BD17BD18"/>
    <trip id="113" depart="113.00" from="AZ16AY16" to="BQ2BR2"/>
    <trip id="114" depart="114.00" from="AI11AI10" to="BV46BU46"/>
    <trip id="115" depart="115.00" from="AE19AF19" to="AJ2AJ1"/>
    <trip id="116" depart="116.00" from="BD41BC41" to="BH3BH4"/>
    <trip id="117" depart="117.00" from="AL4AL5" to="AG18AG17"/>
    <trip id="118" depart="118.00" from="BS24BR24" to="AM29AN29"/>
    <trip id="119" depart="119.00" from="BD3BE3" to="BE5BE6"/>
    <trip id="120" depart="120.00" from="AV0AU0" to="BD16BD15"/>
    <trip id="121" depart="121.00" from="BA15BA16" to="BU32BV32"/>
    <trip id="122" depart="122.00" from="AK26AJ26" to="BJ40BK40"/>
    <trip id="123" depart="123.00" from="AM12AM11" to="AT47AU47"/>
    <trip id="124" depart="124.00" from="BH31BI31" to="AP14AO14"/>
    <trip id="125" depart="125.00" from="AP5AO5" to="BL30BL29"/>
    <trip id="126" depart="126.00" from="AD47AE47" to="AW6AX6"/>
    <trip id="127" depart="127.00" from="BX4BX5" to="BX42BX43"/>
    <trip id="128" depart="128.00" from="AD49AE49" to="AK45AL45"/>
    <trip id="129" depart="129.00" from="AN26AO26" to="BU2BU1"/>
    <trip id="130" depart="130.00" from="BR48BR47" to="BR44BR45"/>
    <trip id="131" depart="131.00" from="AS34AR34" to="AI12AH12"/>
    <trip id="132" depart="132.00" from="BP32BQ32" to="BJ12BK12"/>
    <trip id="133" depart="133.00" from="BE33BE32" to="BX17BW17"/>
    <trip id="134" depart="134.00" from="BG38BF38" to="AA32AB32"/>
    <trip id="135" depart="135.00" from="BO40BO41" to="AP12AP13"/>
    <trip id="136" depart="136.00" from="BH13BH14" to="BU42BT42"/>
    <trip id="137" depart="137.00" from="AG4AH4" to="AF8AE8"/>
    <trip id="138" depart="138.00" from="AF34AF33" to="BB38BB39"/>
    <trip id="139" depart="139.00" from="AN42AN41" to="BE18BE19"/>
    <trip id="140" depart="140.00" from="BJ44BJ43" to="AK24AK25"/>
    <trip id="141" depart="141.00" from="BF39BE39" to="AN23AO23"/>
    <trip id="142" depart="142.00" from="AY29AY30" to="BT12BT11"/>
    <trip id="143" depart="143.00" from="BQ15BR15" to="AE46AF46"/>
    <trip id="144" depart="144.00" from="AV19AW19" to="AN7AN6"/>
    <trip id="145" depart="145.00" from="AA1AB1" to="BM29BL29"/>
    <trip id="146" depart="146.00" from="BF45BE45" to="AN19AO19"/>
    <trip id="147" depart="147.00" from="BK7BJ7" to="BB34BC34"/>
    <trip id="148" depart="148.00" from="AV29AU29" to="AA38AB38"/>
    <trip id="149" depart="149.00" from="AD8AE8" to="BR8BQ8"/>
    <trip id="150" depart="150.00" from="BS9BS8" to="BB20BC20"/>
    <trip id="151" depart="151.00" from="BP35BO35" to="BD13BD12"/>
    <trip id="152" depart="152.00" from="AH36AG36" to="AG34AH34"/>
    <trip id="153" depart="153.00" from="AP32AP31" to="BS43BS42"/>
    <trip id="154" depart="154.00" from="BN39BO39" to="BQ48BQ49"/>
    <trip id="155" depart="155.00" from="BS43BR43" to="AK39AK38"/>
    <trip id="156" depart="156.00" from="AM37AL37" to="AF25AE25"/>
    <trip id="157" depart="157.00" from="BM49BL49" to="BS0BT0"/>
    <trip id="158" depart="158.00" from="AU26AU25" to="BE8BE9"/>
    <trip id="159" depart="159.00" from="AH5AG5" to="BU22BT22"/>
    <trip id="160" depart="160.00" from="BR11BR12" to="BW35BW36"/>
    <trip id="161" depart="161.00" from="BO27BN27" to="BR4BQ4"/>
    <trip id="162" depart="162.00" from="AB30AC30" to="BK41BK40"/>
    <trip id="163" depart="163.00" from="AQ40AQ41" to="BU24BU23"/>
    <trip id="164" depart="164.00" from="BN8BM8" to="BR10BR11"/>
    <trip id="165" depart="165.00" from="BO27BN27" to="AN2AO2"/>
    <trip id="166" depart="166.00" from="BN1BN0" to="AF37AE37"/>
    <trip id="167" depart="167.00" from="BR29BQ29" to="BQ43BQ42"/>
    <trip id="168" depart="168.00" from="AL21AK21" to="BO3BO2"/>
    <trip id="169" depart="169.00" from="AX10AY10" to="AP25AQ25"/>
    <trip id="170" depart="170.00" from="BN37BO37" to="AL32AM32"/>
    <trip id="171" depart="171.00" from="AB29AA29" to="AJ46AJ45"/>
    <trip id="172" depart="172.00" from="AQ31AR31" to="BR10BS10"/>
    <trip id="173" depart="173.00" from="BW14BW15" to="AO12AO13"/>
    <trip id="174" depart="174.00" from="BG0BF0" to="AU10AV10"/>
    <trip id="175" depart="175.00" from="BW46BW47" to="BA45BA44"/>
    <trip id="176" depart="176.00" from="BU42BV42" to="AF8AE8"/>
    <trip id="177" depart="177.00" from="BW22BW21" to="AJ13AJ14"/>
    <trip id="178" depart="178.00" from="BV4BW4" to="AN27AN28"/>
    <trip id="179" depart="179.00" from="AF37AG37" to="AV43AW43"/>
    <trip id="180" depart="180.00" from="BK23BK24" to="AP44AP45"/>
    <trip id="181" depart="181.00" from="BE20BF20" to="AZ35AY35"/>
    <trip id="182" depart="182.00" from="AT23AU23" to="BC45BC44"/>
    <trip id="183" depart="183.00" from="AM48AN48" to="BJ24BK24"/>
    <trip id="184" depart="184.00" from="AA14AB14" to="BU12BU11"/>
    <trip id="185" depart="185.00" from="BA5AZ5" to="BJ48BK48"/>
    <trip id="186" depart="186.00" from="BK8BL8" to="BH2BH1"/>
    <trip id="187" depart="187.00" from="AS22AR22" to="AD41AD42"/>
    <trip id="188" depart="188.00" from="BH15BH16" to="AQ36AQ37"/>
    <trip id="189" depart="189.00" from="AP45AP44" to="BQ1BQ0"/>
    <trip id="190" depart="190.00" from="BJ49BK49" to="AP15AO15"/>
    <trip id="191" depart="191.00" from="AP34AQ34" to="AU30AU29"/>
    <trip id="192" depart="192.00" from="AU17AU18" to="AO4AO3"/>
    <trip id="193" depart="193.00" from="AG34AG35" to="AV12AV11"/>
    <trip id="194" depart="194.00" from="BU45BU46" to="BH44BH45"/>
    <trip id="195" depart="195.00" from="BS6BT6" to="BE41BF41"/>
    <trip id="196" depart="196.00" from="AP16AP17" to="BB26BB27"/>
    <trip id="197" depart="197.00" from="AA10AA9" to="AO2AO3"/>
    <trip id="198" depart="198.00" from="AV33AV32" to="BC7BD7"/>
    <trip id="199" depart="199.00" from="BG39BH39" to="AX21AX20"/>
    <trip id="200" depart="200.00" from="AW16AV16" to="AK47AK46"/>
    <trip id="201" depart="201.00" from="AX3AX4" to="BS48BS49"/>
    <trip id="202" depart="202.00" from="BN39BN40" to="AI39AI38"/>
    <trip id="203" depart="203.00" from="AE2AE1" to="AZ44AY44"/>
    <trip id="204" depart="204.00" from="BF35BG35" to="AQ47AR47"/>
    <trip id="205" depart="205.00" from="BO43BP43" to="BL29BL30"/>
    <trip id="206" depart="206.00" from="BH34BH35" to="AL26AL27"/>
    <trip id="207" depart="207.00" from="AK14AK15" to="AB30AA30"/>
    <trip id="208" depart="208.00" from="AM26AM27" to="AX44AX43"/>
    <trip id="209" depart="209.00" from="BQ23BQ24" to="AD48AD49"/>
    <trip id="210" depart="210.00" from="AU44AT44" to="BF29BE29"/>
    <trip id="211" depart="211.00" from="AJ49AK49" to="BI41BJ41"/>
    <trip id="212" depart="212.00" from="AY41AZ41" to="AM24AM23"/>
    <trip id="213" depart="213.00" from="BG42BF42" to="AA26AA27"/>
    <trip id="214" depart="214.00" from="BL29BK29" to="BM26BM25"/>
    <trip id="215" depart="215.00" from="AF33AF32" to="AV22AW22"/>
    <trip id="216" depart="216.00" from="AI7AJ7" to="BV3BV2"/>
    <trip id="217" depart="217.00" from="AZ4AZ3" to="AC42AC43"/>
    <trip id="218" depart="218.00" from="AM36AL36" to="BQ20BP20"/>
    <trip id="219" depart="219.00" from="AW48AV48" to="BN6BM6"/>
    <trip id="220" depart="220.00" from="BH22BI22" to="BX19BW19"/>
    <trip id="221" depart="221.00" from="BD42BC42" to="BV21BW21"/>
    <trip id="222" depart="222.00" from="BS26BT26" to="BE35BF35"/>
    <trip id="223" depart="223.00" from="BJ48BJ49" to="AZ1BA1"/>
    <trip id="224" depart="224.00" from="BP26BO26" to="BB26BB27"/>
    <trip id="225" depart="225.00" from="BS39BT39" to="BL12BL11"/>
    <trip id="226" depart="226.00" from="AX43AW43" to="AN13AM13"/>
    <trip id="227" depart="227.00" from="AM31AM30" to="BF46BF47"/>
    <trip id="228" depart="228.00" from="BM17BL17" to="BA11BB11"/>
    <trip id="229" depart="229.00" from="BF21BG21" to="AN47AO47"/>
    <trip id="230" depart="230.00" from="AE13AE14" to="AO27AO28"/>
    <trip id="231" depart="231.00" from="AN40AO40" to="AQ13AP13"/>
    <trip id="232" depart="232.00" from="BA9BA10" to="AH14AG14"/>
    <trip id="233" depart="233.00" from="AL40AM40" to="BI36BJ36"/>
    <trip id="234" depart="234.00" from="BJ1BI1" to="AD29AD30"/>
    <trip id="235" depart="235.00" from="AU29AU28" to="BB14BB15"/>
    <trip id="236" depart="236.00" from="AU47AU46" to="AK31AK30"/>
    <trip id="237" depart="237.00" from="AV11AV12" to="BT11BS11"/>
    <trip id="238" depart="238.00" from="BD17BD16" to="BI3BJ3"/>
    <trip id="239" depart="239.00" from="BQ39BR39" to="BM16BM17"/>
    <trip id="240" depart="240.00" from="AT13AS13" to="AA27AA28"/>
    <trip id="241" depart="241.00" from="AR3AQ3" to="BL34BL33"/>
    <trip id="242" depart="242.00" from="BQ31BR31" to="BV2BU2"/>
    <trip id="243" depart="243.00" from="AU9AU8" to="BL20BL21"/>
    <trip id="244" depart="244.00" from="BB22BB21" to="BE14BE15"/>
    <trip id="245" depart="245.00" from="AL17AL18" to="AL14AM14"/>
    <trip id="246" depart="246.00" from="AV47AU47" to="AB40AB39"/>
    <trip id="247" depart="247.00" from="AQ4AQ3" to="BH49BG49"/>
    <trip id="248" depart="248.00" from="AU21AU20" to="AI29AH29"/>
    <trip id="249" depart="249.00" from="AX27AX26" to="AG35AG34"/>
    <trip id="250" depart="250.00" from="BF11BG11" to="AB36AA36"/>
    <trip id="251" depart="251.00" from="AT43AT44" to="BC18BC19"/>
    <trip id="252" depart="252.00" from="AB36AB37" to="BG12BG13"/>
    <trip id="253" depart="253.00" from="AG8AG7" to="AX14AX13"/>
    <trip id="254" depart="254.00" from="AC42AD42" to="AT10AS10"/>
    <trip id="255" depart="255.00" from="AK42AK41" to="AQ29AQ28"/>
    <trip id="256" depart="256.00" from="BL6BL7" to="AT10AS10"/>
    <trip id="257" depart="257.00" from="BL30BL31" to="BP29BP30"/>
    <trip id="258" depart="258.00" from="AM42AN42" to="AE23AE22"/>
    <trip id="259" depart="259.00" from="AB19AB20" to="BA7BA8"/>
    <trip id="260" depart="260.00" from="BX9BX8" to="AR35AR36"/>
    <trip id="261" depart="261.00" from="BG29BG30" to="BM6BL6"/>
    <trip id="262" depart="262.00" from="BG32BG33" to="BL36BK36"/>
    <trip id="263" depart="263.00" from="BV20BW20" to="AK15AJ15"/>
    <trip id="264" depart="264.00" from="AB21AA21" to="AH45AH46"/>
    <trip id="265" depart="265.00" from="AG31AH31" to="BH27BH26"/>
    <trip id="266" depart="266.00" from="BC17BC16" to="AL11AK11"/>
    <trip id="267" depart="267.00" from="BI49BI48" to="BM19BM20"/>
    <trip id="268" depart="268.00" from="AI34AJ34" to="BE23BE24"/>
    <trip id="269" depart="269.00" from="BL21BL22" to="AF6AE6"/>
    <trip id="270" depart="270.00" from="BO46BN46" to="BW0BV0"/>
    <trip id="271" depart="271.00" from="AF37AE37" to="AB33AA33"/>
    <trip id="272" depart="272.00" from="AP40AP41" to="BH44BI44"/>
    <trip id="273" depart="273.00" from="BV3BW3" to="AT4AT3"/>
    <trip id="274" depart="274.00" from="BJ39BI39" to="AE0AF0"/>
    <trip id="275" depart="275.00" from="BI29BJ29" to="BF23BE23"/>
    <trip id="276" depart="276.00" from="AF22AG22" to="BM31BM30"/>
    <trip id="277" depart="277.00" from="BQ25BP25" to="BD8BD9"/>
    <trip id="278" depart="278.00" from="AG20AG19" to="BW7BW6"/>
    <trip id="279" depart="279.00" from="BM9BM8" to="AR29AS29"/>
    <trip id="280" depart="280.00" from="AV2AW2" to="AS36AS37"/>
    <trip id="281" depart="281.00" from="AZ22BA22" to="AR16AQ16"/>
    <trip id="282" depart="282.00" from="BQ23BQ22" to="BO7BP7"/>
    <trip id="283" depart="283.00" from="AF30AF31" to="BV46BV45"/>
    <trip id="284" depart="284.00" from="BF41BF40" to="BP21BP22"/>
    <trip id="285" depart="285.00" from="BJ21BI21" to="AV46AU46"/>
    <trip id="286" depart="286.00" from="BK35BK36" to="BW11BV11"/>
    <trip id="287" depart="287.00" from="AN37AO37" to="BO20BP20"/>
    <trip id="288" depart="288.00" from="BA4BA5" to="AY18AY17"/>
    <trip id="289" depart="289.00" from="AV46AV45" to="BK29BL29"/>
    <trip id="290" depart="290.00" from="AN33AO33" to="BQ28BQ29"/>
    <trip id="291" depart="291.00" from="BP26BP27" to="AE33AF33"/>
    <trip id="292" depart="292.00" from="BR4BR5" to="AM24AL24"/>
    <trip id="293" depart="293.00" from="AX20AY20" to="BE30BD30"/>
    <trip id="294" depart="294.00" from="AT0AU0" to="AB3AB2"/>
    <trip id="295" depart="295.00" from="BQ26BQ27" to="AJ20AJ21"/>
    <trip id="296" depart="296.00" from="AK43AK42" to="BN42BO42"/>
    <trip id="297" depart="297.00" from="AR14AQ14" to="BR47BQ47"/>
    <trip id="298" depart="298.00" from="BI7BJ7" to="AN6AN5"/>
    <trip id="299" depart="299.00" from="AA3AA4" to="BV18BU18"/>
    <trip id="300" depart="300.00" from="AE31AE30" to="BJ4BJ5"/>
    <trip id="301" depart="301.00" from="AY29AZ29" to="BL44BM44"/>
    <trip id="302" depart="302.00" from="BI29BJ29" to="BG1BF1"/>
    <trip id="303" depart="303.00" from="AY34AY33" to="BN31BO31"/>
    <trip id="304" depart="304.00" from="AE48AE49" to="AL1AK1"/>
    <trip id="305" depart="305.00" from="BI31BI32" to="AP28AP27"/>
    <trip id="306" depart="306.00" from="BD11BC11" to="AX3AX4"/>
    <trip id="307" depart="307.00" from="BA33BA34" to="AV23AV24"/>
    <trip id="308" depart="308.00" from="BL17BM17" to="AQ38AP38"/>
    <trip id="309" depart="309.00" from="BJ11BJ10" to="AN39AO39"/>
    <trip id="310" depart="310.00" from="AM40AM41" to="AG1AG0"/>
    <trip id="311" depart="311.00" from="AJ45AI45" to="AG17AG18"/>
    <trip id="312" depart="312.00" from="BA44BA45" to="BL8BM8"/>
    <trip id="313" depart="313.00" from="AJ28AK28" to="AK8AJ8"/>
    <trip id="314" depart="314.00" from="AY1AX1" to="BK15BJ15"/>
    <trip id="315" depart="315.00" from="BW36BW37" to="BA1AZ1"/>
    <trip id="316" depart="316.00" from="AO21AN21" to="AF1AF0"/>
    <trip id="317" depart="317.00" from="AJ48AK48" to="AL32AL33"/>
    <trip id="318" depart="318.00" from="AJ15AK15" to="AA6AB6"/>
    <trip id="319" depart="319.00" from="BA40BA39" to="AN47AN46"/>
    <trip id="320" depart="320.00" from="BW30BX30" to="BB38BC38"/>
    <trip id="321" depart="321.00" from="BI44BI43" to="AG32AF32"/>
    <trip id="322" depart="322.00" from="BR20BQ20" to="AY34AY33"/>
    <trip id="323" depart="323.00" from="BR2BR1" to="BC3BB3"/>
    <trip id="324" depart="324.00" from="AX31AX30" to="AW11AX11"/>
    <trip id="325" depart="325.00" from="AJ26AK26" to="AC45AC46"/>
    <trip id="326" depart="326.00" from="BU47BU46" to="AX4AY4"/>
    <trip id="327" depart="327.00" from="BO7BN7" to="AU13AU12"/>
    <trip id="328" depart="328.00" from="AD5AE5" to="BF28BF27"/>
    <trip id="329" depart="329.00" from="AC5AC4" to="AH38AH39"/>
    <trip id="330" depart="330.00" from="BC14BC15" to="AP22AP23"/>
    <trip id="331" depart="331.00" from="BX36BX37" to="AG14AH14"/>
    <trip id="332" depart="332.00" from="BM13BM14" to="BE21BD21"/>
    <trip id="333" depart="333.00" from="BN27BN28" to="AL29AK29"/>
    <trip id="334" depart="334.00" from="BA15AZ15" to="AW34AW35"/>
    <trip id="335" depart="335.00" from="AW17AW16" to="BQ47BP47"/>
    <trip id="336" depart="336.00" from="BX25BW25" to="AP26AP25"/>
    <trip id="337" depart="337.00" from="BE9BE8" to="BE29BE28"/>
    <trip id="338" depart="338.00" from="BK4BK3" to="BV16BW16"/>
    <trip id="339" depart="339.00" from="AK33AL33" to="AK40AK41"/>
    <trip id="340" depart="340.00" from="BG7BF7" to="AI10AI11"/>
    <trip id="341" depart="341.00" from="AI48AI49" to="AD8AD7"/>
    <trip id="342" depart="342.00" from="AA18AA17" to="AW34AW33"/>
    <trip id="343" depart="343.00" from="BD39BC39" to="AO3AO2"/>
    <trip id="344" depart="344.00" from="AL41AL40" to="BJ20BJ19"/>
    <trip id="345" depart="345.00" from="BJ11BJ12" to="AW42AV42"/>
    <trip id="346" depart="346.00" from="BI21BJ21" to="BT9BS9"/>
    <trip id="347" depart="347.00" from="BN20BN19" to="BF18BF19"/>
    <trip id="348" depart="348.00" from="BG8BH8" to="BU30BU29"/>
    <trip id="349" depart="349.00" from="AV22AW22" to="BB19BB18"/>
    <trip id="350" depart="350.00" from="BG23BG22" to="BT19BU19"/>
    <trip id="351" depart="351.00" from="BP17BP18" to="AD45AC45"/>
    <trip id="352" depart="352.00" from="AI30AH30" to="AP30AQ30"/>
    <trip id="353" depart="353.00" from="BL24BK24" to="BC29BC28"/>
    <trip id="354" depart="354.00" from="AO33AP33" to="AG28AG27"/>
    <trip id="355" depart="355.00" from="BI25BH25" to="BI4BI3"/>
    <trip id="356" depart="356.00" from="BU5BU6" to="AZ10AZ11"/>
    <trip id="357" depart="357.00" from="AY40AY41" to="AE1AF1"/>
    <trip id="358" depart="358.00" from="AC1AC0" to="AV38AV39"/>
    <trip id="359" depart="359.00" from="AQ19AQ18" to="AM39AL39"/>
    <trip id="360" depart="360.00" from="AE44AE43" to="BV49BU49"/>
    <trip id="361" depart="361.00" from="BP38BP37" to="BC42BB42"/>
    <trip id="362" depart="362.00" from="BV23BW23" to="BX8BX7"/>
    <trip id="363" depart="363.00" from="BH33BH32" to="AN36AN37"/>
    <trip id="364" depart="364.00" from="AC20AB20" to="BL40BK40"/>
    <trip id="365" depart="365.00" from="AX33AY33" to="BG31BH31"/>
    <trip id="366" depart="366.00" from="BT36BT37" to="AJ1AK1"/>
    <trip id="367" depart="367.00" from="BD1BD0" to="BF3BF2"/>
    <trip id="368" depart="368.00" from="AY36AY35" to="AE44AD44"/>
    <trip id="369" depart="369.00" from="AR30AR31" to="AQ43AQ42"/>
    <trip id="370" depart="370.00" from="BH29BG29" to="BQ41BQ40"/>
    <trip id="371" depart="371.00" from="AQ35AQ36" to="BI36BI35"/>
    <trip id="372" depart="372.00" from="AO32AP32" to="BV11BU11"/>
    <trip id="373" depart="373.00" from="BO33BN33" to="BB30BC30"/>
    <trip id="374" depart="374.00" from="AW44AV44" to="AP46AQ46"/>
    <trip id="375" depart="375.00" from="AQ20AQ21" to="BW21BX21"/>
    <trip id="376" depart="376.00" from="AU20AV20" to="AZ42AY42"/>
    <trip id="377" depart="377.00" from="BX19BX20" to="BG46BF46"/>
    <trip id="378" depart="378.00" from="BB14BB15" to="AU41AT41"/>
    <trip id="379" depart="379.00" from="AJ33AK33" to="AS17AR17"/>
    <trip id="380" depart="380.00" from="BL40BL41" to="BF19BF20"/>
    <trip id="381" depart="381.00" from="BL49BL48" to="AK24AK23"/>
    <trip id="382" depart="382.00" from="BB29BC29" to="BU17BU18"/>
    <trip id="383" depart="383.00" from="AV6AW6" to="BI46BI45"/>
    <trip id="384" depart="384.00" from="AG21AF21" to="BW29BV29"/>
    <trip id="385" depart="385.00" from="BE27BE28" to="AM13AN13"/>
    <trip id="386" depart="386.00" from="AI13AI14" to="BB32BC32"/>
    <trip id="387" depart="387.00" from="BB36BB35" to="AE49AD49"/>
    <trip id="388" depart="388.00" from="BX31BX30" to="BT2BS2"/>
    <trip id="389" depart="389.00" from="AX13AY13" to="AG12AG11"/>
    <trip id="390" depart="390.00" from="BP2BO2" to="AY6AX6"/>
    <trip id="391" depart="391.00" from="BJ41BK41" to="AZ29BA29"/>
    <trip id="392" depart="392.00" from="AN45AM45" to="BP35BP34"/>
    <trip id="393" depart="393.00" from="BW44BW43" to="AM23AN23"/>
    <trip id="394" depart="394.00" from="BB33BC33" to="AT20AS20"/>
    <trip id="395" depart="395.00" from="BT4BS4" to="AZ28AZ27"/>
    <trip id="396" depart="396.00" from="BR44BR45" to="BR10BQ10"/>
    <trip id="397" depart="397.00" from="AN6AN5" to="BN25BO25"/>
    <trip id="398" depart="398.00" from="AU45AU44" to="BU31BU32"/>
    <trip id="399" depart="399.00" from="AZ27AY27" to="BO49BN49"/>
    <trip id="400" depart="400.00" from="AO20AO21" to="AP10AP9"/>
    <trip id="401" depart="401.00" from="BD23BD22" to="BX6BX5"/>
    <trip id="402" depart="402.00" from="AY31AY30" to="AH37AG37"/>
    <trip id="403" depart="403.00" from="BA5BA6" to="AR24AS24"/>
    <trip id="404" depart="404.00" from="BB35BB34" to="BB16BB17"/>
    <trip id="405" depart="405.00" from="AW45AW44" to="AQ18AP18"/>
    <trip id="406" depart="406.00" from="AJ36AJ35" to="BI44BI45"/>
    <trip id="407" depart="407.00" from="BC34BC35" to="AL46AL45"/>
    <trip id="408" depart="408.00" from="BM38BN38" to="AC28AC29"/>
    <trip id="409" depart="409.00" from="BL14BM14" to="BJ17BI17"/>
    <trip id="410" depart="410.00" from="BO28BP28" to="AT26AS26"/>
    <trip id="411" depart="411.00" from="BH14BH13" to="BO49BP49"/>
    <trip id="412" depart="412.00" from="BW45BX45" to="AY44AY43"/>
    <trip id="413" depart="413.00" from="AC13AC12" to="AZ14BA14"/>
    <trip id="414" depart="414.00" from="BD30BC30" to="BR23BQ23"/>
    <trip id="415" depart="415.00" from="BR33BQ33" to="AW11AW10"/>
    <trip id="416" depart="416.00" from="BA22BA21" to="AW49AV49"/>
    <trip id="417" depart="417.00" from="BK0BL0" to="AU34AT34"/>
    <trip id="418" depart="418.00" from="BG39BH39" to="AH4AH5"/>
    <trip id="419" depart="419.00" from="AX31AX30" to="BW1BW0"/>
    <trip id="420" depart="420.00" from="AR0AR1" to="BI33BJ33"/>
    <trip id="421" depart="421.00" from="BG28BH28" to="BQ28BQ29"/>
    <trip id="422" depart="422.00" from="BQ2BP2" to="BQ45BP45"/>
    <trip id="423" depart="423.00" from="AT12AT11" to="AP6AP5"/>
    <trip id="424" depart="424.00" from="BJ47BI47" to="BL47BM47"/>
    <trip id="425" depart="425.00" from="BR29BR30" to="AC10AC9"/>
    <trip id="426" depart="426.00" from="AD38AE38" to="BF31BF32"/>
    <trip id="427" depart="427.00" from="BT47BT48" to="BX47BW47"/>
    <trip id="428" depart="428.00" from="BL19BM19" to="AV42AV41"/>
    <trip id="429" depart="429.00" from="AF15AF14" to="BF37BG37"/>
    <trip id="430" depart="430.00" from="BR2BQ2" to="AW19AX19"/>
    <trip id="431" depart="431.00" from="BI37BH37" to="BS8BS7"/>
    <trip id="432" depart="432.00" from="AC33AC32" to="BN39BO39"/>
    <trip id="433" depart="433.00" from="AO44AO43" to="AS46AR46"/>
    <trip id="434" depart="434.00" from="AH2AI2" to="BA34AZ34"/>
    <trip id="435" depart="435.00" from="BC21BC20" to="BN30BO30"/>
    <trip id="436" depart="436.00" from="AI3AH3" to="AE17AD17"/>
    <trip id="437" depart="437.00" from="BR25BS25" to="BE6BE5"/>
    <trip id="438" depart="438.00" from="AM17AM18" to="BT29BU29"/>
    <trip id="439" depart="439.00" from="AH24AI24" to="AX13AW13"/>
    <trip id="440" depart="440.00" from="AM46AN46" to="AM4AM5"/>
    <trip id="441" depart="441.00" from="AA37AB37" to="BO13BN13"/>
    <trip id="442" depart="442.00" from="BS48BT48" to="BH45BH44"/>
    <trip id="443" depart="443.00" from="AI12AI13" to="AW14AX14"/>
    <trip id="444" depart="444.00" from="AR25AS25" to="BD24BE24"/>
    <trip id="445" depart="445.00" from="BF49BG49" to="AV20AW20"/>
    <trip id="446" depart="446.00" from="AM38AM37" to="BQ13BR13"/>
    <trip id="447" depart="447.00" from="AK14AL14" to="AT22AT23"/>
    <trip id="448" depart="448.00" from="AY17AY18" to="AL9AL8"/>