<?xml version="1.0" encoding="UTF-8"?>

<!-- generated on 2026-01-11T19:46:18.206413-08:00 by Eclipse SUMO netedit 1.25.0
<neteditConfiguration xmlns:xsi="http://www.w3.org/2001/XMLSchema-instance" xsi:noNamespaceSchemaLocation="http://sumo.dlr.de/xsd/neteditConfiguration.xsd">

    <input>
        <sumocfg-file value="C:\Users\sujeetjh\Downloads\sumo_quantum_traffic\config.sumocfg"/>
        <sumo-net-file value="C:\Users\sujeetjh\Downloads\sumo_quantum_traffic\network.net.xml"/>
    </input>

    <output>
        <output-file value="C:\Users\sujeetjh\Downloads\sumo_quantum_traffic\network.net.xml"/>
    </output>

    <processing>
        <offset.disable-normalization value="true"/>
    </processing>

    <junctions>
        <no-turnarounds value="true"/>
    </junctions>

    <netedit>
        <new-network value="false"/>
    </netedit>

</neteditConfiguration>
-->

<net version="1.20" junctionCornerDetail="5" limitTurnSpeed="5.50" xmlns:xsi="http://www.w3.org/2001/XMLSchema-instance" xsi:noNamespaceSchemaLocation="http://sumo.dlr.de/xsd/net_file.xsd">

    <location netOffset="0.00,0.00" convBoundary="-64.07,-27.43,4.72,19.55" origBoundary="10000000000.00,10000000000.00,-10000000000.00,-10000000000.00" projParameter="!"/>

    <edge id=":J8_0" function="internal">
        <lane id=":J8_0_0" index="0" speed="3.90" length="2.56" shape="1.33,17.64 2.03,17.53 2.52,17.23 2.82,16.74 2.92,16.04"/>
    </edge>

    <edge id="E6" from="J7" to="J8" priority="-1">
        <lane id="E6_0" index="0" speed="13.89" length="65.41" shape="-64.08,17.95 1.33,17.64"/>
    </edge>
    <edge id="E7" from="J8" to="J10" priority="-1">
        <lane id="E7_0" index="0" speed="13.89" length="43.48" shape="2.92,16.04 3.12,-27.44"/>
    </edge>

    <tlLogic id="J8" type="static" programID="0" offset="0">
        <phase duration="82" state="G"/>
        <phase duration="3"  state="y"/>
        <phase duration="5"  state="r"/>
    </tlLogic>

    <junction id="J10" type="dead_end" x="4.72" y="-27.43" incLanes="E7_0" intLanes="" shape="1.52,-27.44 4.72,-27.43"/>
    <junction id="J7" type="dead_end" x="-64.07" y="19.55" incLanes="" intLanes="" shape="-64.07,19.55 -64.09,16.35"/>
    <junction id="J8" type="traffic_light" x="4.51" y="19.22" incLanes="E6_0" intLanes=":J8_0_0" shape="4.52,16.05 1.32,16.04 1.34,19.24 3.10,18.87 3.72,18.43 4.16,17.81 4.43,17.02">
        <request index="0" response="0" foes="0" cont="0"/>
    </junction>

    <connection from="E6" to="E7" fromLane="0" toLane="0" via=":J8_0_0" tl="J8" linkIndex="0" dir="r" state="O"/>

    <connection from=":J8_0" to="E7" fromLane="0" toLane="0" dir="r" state="M"/>

</net>
