<?xml version="1.0" encoding="UTF-8"?>

<!-- generated on 2026-01-11T19:38:53.230726-08:00 by Eclipse SUMO sumo 1.25.0
-->

<sumoConfiguration xmlns:xsi="http://www.w3.org/2001/XMLSchema-instance" xsi:noNamespaceSchemaLocation="http://sumo.dlr.de/xsd/sumoConfiguration.xsd">

    <input>
        <net-file value="network.net.xml"/>
	<route-files value="routes.rou.xml"/>
    </input>

</sumoConfiguration>
